Info: SIMULATION PARAMETERS:
Info: TIMESTEP               2
Info: NUMBER OF STEPS        0
Info: STEPS PER CYCLE        10
Info: PERIODIC CELL BASIS 1  36.592 0 0
Info: PERIODIC CELL BASIS 2  0 35.411 0
Info: PERIODIC CELL BASIS 3  0 0 34.229
Info: PERIODIC CELL CENTER   0 0 0
Info: WRAPPING WATERS AROUND PERIODIC BOUNDARIES ON OUTPUT.
Info: WRAPPING ALL CLUSTERS AROUND PERIODIC BOUNDARIES ON OUTPUT.
Info: FIRST LDB TIMESTEP     50
Info: LAST LDB TIMESTEP     -1
Info: HOM BACKGROUND SCALING 1
Info: PME BACKGROUND SCALING 1
Info: MIN ATOMS PER PATCH    40
Info: EMPTY PATCH LOAD       40 ATOMS
Info: INITIAL TEMPERATURE    300
Info: CENTER OF MASS MOVING INITIALLY? NO
Info: DIELECTRIC             1
Info: EXCLUDE                SCALED ONE-FOUR
Info: 1-4 ELECTROSTATICS SCALED BY 0.833333
Info: MODIFIED 1-4 VDW PARAMETERS WILL BE USED
Info: DCD FILENAME           mobley_4715906_equil.dcd
Info: DCD FREQUENCY          100000
Info: DCD FIRST STEP         100000
Info: DCD FILE WILL CONTAIN UNIT CELL DATA
Info: XST FILENAME           mobley_4715906_equil.xst
Info: XST FREQUENCY          100000
Info: NO VELOCITY DCD OUTPUT
Info: NO FORCE DCD OUTPUT
Info: OUTPUT FILENAME        mobley_4715906_equil
Info: BINARY OUTPUT FILES WILL BE USED
Info: RESTART FILENAME       mobley_4715906_equil.restart
Info: RESTART FREQUENCY      100000
Info: BINARY RESTART FILES WILL BE USED
Info: CUTOFF                 9
Info: PAIRLIST DISTANCE      11
Info: PAIRLIST SHRINK RATE   0.01
Info: PAIRLIST GROW RATE     0.01
Info: PAIRLIST TRIGGER       0.3
Info: PAIRLISTS PER CYCLE    2
Info: PAIRLISTS ENABLED
Info: MARGIN                 8
Info: HYDROGEN GROUP CUTOFF  2.5
Info: PATCH DIMENSION        21.5
Info: ENERGY OUTPUT STEPS    100000
Info: ENERGY EVALUATION STEPS    100000
Info: OUTPUT ENERGY PRECISION 4
Info: CROSSTERM ENERGY INCLUDED IN DIHEDRAL
Info: TIMING OUTPUT STEPS    1000000
Info: PRESSURE OUTPUT STEPS  100000
Info: FIXED ATOMS ACTIVE
Info: LANGEVIN DYNAMICS ACTIVE
Info: LANGEVIN TEMPERATURE   30
Info: LANGEVIN USING BBK INTEGRATOR
Info: LANGEVIN DAMPING COEFFICIENT IS 1 INVERSE PS
Info: LANGEVIN DYNAMICS APPLIED TO HYDROGENS
Info: LANGEVIN PISTON PRESSURE CONTROL ACTIVE
Info:        TARGET PRESSURE IS 1.01325 BAR
Info:     OSCILLATION PERIOD IS 50 FS
Info:             DECAY TIME IS 25 FS
Info:     PISTON TEMPERATURE IS 300 K
Info:       PRESSURE CONTROL IS GROUP-BASED
Info:    INITIAL STRAIN RATE IS 0 0 0
Info:       CELL FLUCTUATION IS ISOTROPIC
Info: PARTICLE MESH EWALD (PME) ACTIVE
Info: PME TOLERANCE               1e-06
Info: PME EWALD COEFFICIENT       0.348832
Info: PME INTERPOLATION ORDER     4
Info: PME GRID DIMENSIONS         40 36 36
Info: PME MAXIMUM GRID SPACING    1
Info: FULL ELECTROSTATIC EVALUATION FREQUENCY      2
Info: USING VERLET I (r-RESPA) MTS SCHEME.
Info: C1 SPLITTING OF LONG RANGE ELECTROSTATICS
Info: PLACING ATOMS IN PATCHES BY HYDROGEN GROUPS
Info: RIGID BONDS TO HYDROGEN : ALL
Info:         ERROR TOLERANCE : 1e-08
Info:          MAX ITERATIONS : 100
Info: RIGID WATER USING SETTLE ALGORITHM
Info: RANDOM NUMBER SEED     1743765106
Info: USE HYDROGEN BONDS?    NO
Info: Using AMBER format force field!
Info: AMBER PARM FILE        mobley_4715906.prmtop
Info: COORDINATE PDB         mobley_4715906.pdb
Info: Exclusions will be read from PARM file!
Info: SCNB (VDW SCALING)     2
Info: USING ARITHMETIC MEAN TO COMBINE L-J SIGMA PARAMETERS
Info: BINARY COORDINATES     mobley_4715906_min.coor
Info: SUMMARY OF PARAMETERS:
Info: 4 BONDS
Info: 3 ANGLES
Info:   3 HARMONIC
Info:   0 COSINE-BASED
Info: 5 DIHEDRAL
Info: 0 IMPROPER
Info: 0 CROSSTERM
Info: 0 VDW
Info: 10 VDW_PAIRS
Info: 0 NBTHOLE_PAIRS
Info: STRUCTURE SUMMARY:
Info: 2925 ATOMS
Info: 2925 BONDS
Info: 48 ANGLES
Info: 94 DIHEDRALS
Info: 0 IMPROPERS
Info: 0 CROSSTERMS
Info: 3042 EXCLUSIONS
Info: 24 FIXED ATOMS
Info: 2917 RIGID BONDS
Info: 16 RIGID BONDS BETWEEN FIXED ATOMS
Info: 5802 DEGREES OF FREEDOM
Info: 975 HYDROGEN GROUPS
Info: 4 ATOMS IN LARGEST HYDROGEN GROUP
Info: 975 MIGRATION GROUPS
Info: 4 ATOMS IN LARGEST MIGRATION GROUP
Info: 8 HYDROGEN GROUPS WITH ALL ATOMS FIXED
Info: TOTAL MASS = 17533.7 amu
Info: TOTAL CHARGE = -0.000199981 e
Info: MASS DENSITY = 0.656468 g/cm^3
Info: ATOM DENSITY = 0.0659489 atoms/A^3
Info: ADDED 0 IMPLICIT EXCLUSIONS
Info: NONBONDED TABLE R-SQUARED SPACING: 0.0625
Info: NONBONDED TABLE SIZE: 705 POINTS
Info: REMOVING COM VELOCITY -0.0839621 0.0461101 -0.0036889
TCL: Running for 100000 steps
ETITLE: TS BOND ANGLE DIHED IMPRP ELECT VDW BOUNDARY MISC KINETIC TOTAL TEMP POTENTIAL TOTAL3 TEMPAVG PRESSURE GPRESSURE VOLUME PRESSAVG GPRESSAVG
ENERGY: 0 0.0000 0.0000 0.0000 0.0000 -13454.7562 2363.4198 0.0000 0.0000 1688.5550 -9402.7814 292.9057 -11091.3364 -9402.4651 292.9057 406.6997 445.8282 44352.5455 406.6997 445.8282
ENERGY: 100000 0.0000 0.0000 0.0000 0.0000 -13946.2824 2327.4351 0.0000 0.0000 169.3905 -11449.4568 29.3834 -11618.8473 -11449.1603 30.8812 -785.2707 -700.4882 28361.6789 3.1089 3.1012
TCL: Running 100000 steps at 60 kelvin.
TCL: Setting parameter langevinTemp to 60
TCL: Running for 100000 steps
ETITLE: TS BOND ANGLE DIHED IMPRP ELECT VDW BOUNDARY MISC KINETIC TOTAL TEMP POTENTIAL TOTAL3 TEMPAVG PRESSURE GPRESSURE VOLUME PRESSAVG GPRESSAVG
ENERGY: 100000 0.0000 0.0000 0.0000 0.0000 -13946.2824 2327.4351 0.0000 0.0000 169.3034 -11449.5438 29.3683 -11618.8473 -11449.1808 29.3683 -764.0288 -700.5765 28361.6789 -764.0288 -700.5765
ENERGY: 200000 0.0000 0.0000 0.0000 0.0000 -13764.9609 2225.7854 0.0000 0.0000 350.6056 -11188.5700 60.8179 -11539.1755 -11187.1523 59.9282 -1373.2064 -1301.2355 28568.5957 4.1523 4.1530
TCL: Running 100000 steps at 90 kelvin.
TCL: Setting parameter langevinTemp to 90
TCL: Running for 100000 steps
ETITLE: TS BOND ANGLE DIHED IMPRP ELECT VDW BOUNDARY MISC KINETIC TOTAL TEMP POTENTIAL TOTAL3 TEMPAVG PRESSURE GPRESSURE VOLUME PRESSAVG GPRESSAVG
ENERGY: 200000 0.0000 0.0000 0.0000 0.0000 -13764.9609 2225.7854 0.0000 0.0000 350.4359 -11188.7397 60.7885 -11539.1755 -11187.9372 60.7885 -1356.9864 -1300.7153 28568.5957 -1356.9864 -1300.7153
ENERGY: 300000 0.0000 0.0000 0.0000 0.0000 -13807.9906 2356.8538 0.0000 0.0000 517.3843 -10933.7524 89.7482 -11451.1367 -10932.1407 90.0431 386.7997 469.6946 27755.1960 4.4085 4.4349
TCL: Running 100000 steps at 120 kelvin.
TCL: Setting parameter langevinTemp to 120
TCL: Running for 100000 steps
ETITLE: TS BOND ANGLE DIHED IMPRP ELECT VDW BOUNDARY MISC KINETIC TOTAL TEMP POTENTIAL TOTAL3 TEMPAVG PRESSURE GPRESSURE VOLUME PRESSAVG GPRESSAVG
ENERGY: 300000 0.0000 0.0000 0.0000 0.0000 -13807.9906 2356.8538 0.0000 0.0000 517.1268 -10934.0100 89.7036 -11451.1367 -10933.0721 89.7036 403.5939 470.0684 27755.1960 403.5939 470.0684
ENERGY: 400000 0.0000 0.0000 0.0000 0.0000 -13638.0407 2274.6926 0.0000 0.0000 704.5140 -10658.8341 122.2087 -11363.3481 -10656.6249 120.0306 -126.6132 -151.3478 28286.0352 3.6999 3.5651
TCL: Running 100000 steps at 150 kelvin.
TCL: Setting parameter langevinTemp to 150
TCL: Running for 100000 steps
ETITLE: TS BOND ANGLE DIHED IMPRP ELECT VDW BOUNDARY MISC KINETIC TOTAL TEMP POTENTIAL TOTAL3 TEMPAVG PRESSURE GPRESSURE VOLUME PRESSAVG GPRESSAVG
ENERGY: 400000 0.0000 0.0000 0.0000 0.0000 -13638.0407 2274.6926 0.0000 0.0000 704.1671 -10659.1809 122.1486 -11363.3481 -10657.8197 122.1486 -196.7349 -151.3151 28286.0352 -196.7349 -151.3151
ENERGY: 500000 0.0000 0.0000 0.0000 0.0000 -13374.4788 2198.2444 0.0000 0.0000 866.7711 -10309.4633 150.3547 -11176.2344 -10306.6881 149.7268 -219.6529 -122.7398 28299.4412 4.4716 4.5643
TCL: Running 100000 steps at 180 kelvin.
TCL: Setting parameter langevinTemp to 180
TCL: Running for 100000 steps
ETITLE: TS BOND ANGLE DIHED IMPRP ELECT VDW BOUNDARY MISC KINETIC TOTAL TEMP POTENTIAL TOTAL3 TEMPAVG PRESSURE GPRESSURE VOLUME PRESSAVG GPRESSAVG
ENERGY: 500000 0.0000 0.0000 0.0000 0.0000 -13374.4788 2198.2444 0.0000 0.0000 866.3546 -10309.8799 150.2825 -11176.2344 -10308.3519 150.2825 -168.9707 -121.9525 28299.4412 -168.9707 -121.9525
ENERGY: 600000 0.0000 0.0000 0.0000 0.0000 -12875.6071 1975.3768 0.0000 0.0000 1024.5510 -9875.6793 177.7241 -10900.2303 -9873.4652 180.0607 -1131.0612 -1109.8568 28744.5121 3.6125 3.6817
TCL: Running 100000 steps at 210 kelvin.
TCL: Setting parameter langevinTemp to 210
TCL: Running for 100000 steps
ETITLE: TS BOND ANGLE DIHED IMPRP ELECT VDW BOUNDARY MISC KINETIC TOTAL TEMP POTENTIAL TOTAL3 TEMPAVG PRESSURE GPRESSURE VOLUME PRESSAVG GPRESSAVG
ENERGY: 600000 0.0000 0.0000 0.0000 0.0000 -12875.6071 1975.3768 0.0000 0.0000 1024.0300 -9876.2003 177.6337 -10900.2303 -9874.2295 177.6337 -1164.9916 -1109.8856 28744.5121 -1164.9916 -1109.8856
ENERGY: 700000 0.0000 0.0000 0.0000 0.0000 -12225.0638 1811.0529 0.0000 0.0000 1201.5787 -9212.4322 208.4322 -10414.0109 -9208.6584 210.2539 -723.0882 -622.5418 28835.7811 2.2343 2.1671
TCL: Running 100000 steps at 240 kelvin.
TCL: Setting parameter langevinTemp to 240
TCL: Running for 100000 steps
ETITLE: TS BOND ANGLE DIHED IMPRP ELECT VDW BOUNDARY MISC KINETIC TOTAL TEMP POTENTIAL TOTAL3 TEMPAVG PRESSURE GPRESSURE VOLUME PRESSAVG GPRESSAVG
ENERGY: 700000 0.0000 0.0000 0.0000 0.0000 -12225.0638 1811.0529 0.0000 0.0000 1200.9524 -9213.0584 208.3236 -10414.0109 -9210.2417 208.3236 -704.7789 -622.6251 28835.7811 -704.7789 -622.6251
ENERGY: 800000 0.0000 0.0000 0.0000 0.0000 -11580.8236 1648.5408 0.0000 0.0000 1392.9879 -8539.2949 241.6351 -9932.2828 -8535.3030 239.5742 -308.3013 -187.8809 28810.5992 4.0379 4.0218
TCL: Running 100000 steps at 270 kelvin.
TCL: Setting parameter langevinTemp to 270
TCL: Running for 100000 steps
ETITLE: TS BOND ANGLE DIHED IMPRP ELECT VDW BOUNDARY MISC KINETIC TOTAL TEMP POTENTIAL TOTAL3 TEMPAVG PRESSURE GPRESSURE VOLUME PRESSAVG GPRESSAVG
ENERGY: 800000 0.0000 0.0000 0.0000 0.0000 -11580.8236 1648.5408 0.0000 0.0000 1392.3062 -8539.9766 241.5168 -9932.2828 -8537.5055 241.5168 -270.8118 -186.8653 28810.5992 -270.8118 -186.8653
ENERGY: 900000 0.0000 0.0000 0.0000 0.0000 -11101.5330 1556.3509 0.0000 0.0000 1552.9767 -7992.2054 269.3876 -9545.1821 -7989.8938 270.4787 34.2558 90.1058 29533.8916 3.1648 3.0476
TCL: Running 1000000 steps at 300 kelvin.
TCL: Setting parameter langevinTemp to 300
TCL: Running for 1000000 steps
ETITLE: TS BOND ANGLE DIHED IMPRP ELECT VDW BOUNDARY MISC KINETIC TOTAL TEMP POTENTIAL TOTAL3 TEMPAVG PRESSURE GPRESSURE VOLUME PRESSAVG GPRESSAVG
ENERGY: 900000 0.0000 0.0000 0.0000 0.0000 -11101.5330 1556.3509 0.0000 0.0000 1552.1927 -7992.9893 269.2516 -9545.1821 -7990.6855 269.2516 4.9559 90.3642 29533.8916 4.9559 90.3642
ENERGY: 1100000 0.0000 0.0000 0.0000 0.0000 -10656.9582 1492.3145 0.0000 0.0000 1734.8938 -7429.7500 300.9439 -9164.6438 -7427.1130 299.2410 553.5189 650.5241 29826.9055 3.2157 2.9826
ENERGY: 1300000 0.0000 0.0000 0.0000 0.0000 -10644.7944 1509.5293 0.0000 0.0000 1700.0728 -7435.1922 294.9037 -9135.2651 -7434.5137 299.5748 885.9920 872.3362 29958.3319 2.5068 2.4125
ENERGY: 1500000 0.0000 0.0000 0.0000 0.0000 -10525.3193 1351.2721 0.0000 0.0000 1723.3271 -7450.7201 298.9375 -9174.0472 -7447.9454 300.1608 -896.0786 -852.9483 30862.6595 2.1695 2.0139
ENERGY: 1700000 0.0000 0.0000 0.0000 0.0000 -10463.1840 1348.1331 0.0000 0.0000 1763.1566 -7351.8943 305.8465 -9115.0509 -7351.0250 300.6009 -727.3395 -657.9546 30799.1410 2.8246 2.7270
ENERGY: 1900000 0.0000 0.0000 0.0000 0.0000 -10552.5032 1433.2252 0.0000 0.0000 1729.1894 -7390.0885 299.9544 -9119.2780 -7386.7915 300.6380 84.5412 128.7719 30331.6655 2.0111 1.8003
TCL: Exiting due to exit command.
