Info: SIMULATION PARAMETERS:
Info: TIMESTEP               2
Info: NUMBER OF STEPS        0
Info: STEPS PER CYCLE        10
Info: PERIODIC CELL BASIS 1  37.435 0 0
Info: PERIODIC CELL BASIS 2  0 36.451 0
Info: PERIODIC CELL BASIS 3  0 0 33.088
Info: PERIODIC CELL CENTER   0 0 0
Info: WRAPPING WATERS AROUND PERIODIC BOUNDARIES ON OUTPUT.
Info: WRAPPING ALL CLUSTERS AROUND PERIODIC BOUNDARIES ON OUTPUT.
Info: FIRST LDB TIMESTEP     50
Info: LAST LDB TIMESTEP     -1
Info: HOM BACKGROUND SCALING 1
Info: PME BACKGROUND SCALING 1
Info: MIN ATOMS PER PATCH    40
Info: EMPTY PATCH LOAD       40 ATOMS
Info: INITIAL TEMPERATURE    300
Info: CENTER OF MASS MOVING INITIALLY? NO
Info: DIELECTRIC             1
Info: EXCLUDE                SCALED ONE-FOUR
Info: 1-4 ELECTROSTATICS SCALED BY 0.833333
Info: MODIFIED 1-4 VDW PARAMETERS WILL BE USED
Info: DCD FILENAME           mobley_20524_equil.dcd
Info: DCD FREQUENCY          100000
Info: DCD FIRST STEP         100000
Info: DCD FILE WILL CONTAIN UNIT CELL DATA
Info: XST FILENAME           mobley_20524_equil.xst
Info: XST FREQUENCY          100000
Info: NO VELOCITY DCD OUTPUT
Info: NO FORCE DCD OUTPUT
Info: OUTPUT FILENAME        mobley_20524_equil
Info: BINARY OUTPUT FILES WILL BE USED
Info: RESTART FILENAME       mobley_20524_equil.restart
Info: RESTART FREQUENCY      100000
Info: BINARY RESTART FILES WILL BE USED
Info: CUTOFF                 9
Info: PAIRLIST DISTANCE      11
Info: PAIRLIST SHRINK RATE   0.01
Info: PAIRLIST GROW RATE     0.01
Info: PAIRLIST TRIGGER       0.3
Info: PAIRLISTS PER CYCLE    2
Info: PAIRLISTS ENABLED
Info: MARGIN                 8
Info: HYDROGEN GROUP CUTOFF  2.5
Info: PATCH DIMENSION        21.5
Info: ENERGY OUTPUT STEPS    100000
Info: ENERGY EVALUATION STEPS    100000
Info: OUTPUT ENERGY PRECISION 4
Info: CROSSTERM ENERGY INCLUDED IN DIHEDRAL
Info: TIMING OUTPUT STEPS    1000000
Info: PRESSURE OUTPUT STEPS  100000
Info: FIXED ATOMS ACTIVE
Info: LANGEVIN DYNAMICS ACTIVE
Info: LANGEVIN TEMPERATURE   30
Info: LANGEVIN USING BBK INTEGRATOR
Info: LANGEVIN DAMPING COEFFICIENT IS 1 INVERSE PS
Info: LANGEVIN DYNAMICS APPLIED TO HYDROGENS
Info: LANGEVIN PISTON PRESSURE CONTROL ACTIVE
Info:        TARGET PRESSURE IS 1.01325 BAR
Info:     OSCILLATION PERIOD IS 50 FS
Info:             DECAY TIME IS 25 FS
Info:     PISTON TEMPERATURE IS 300 K
Info:       PRESSURE CONTROL IS GROUP-BASED
Info:    INITIAL STRAIN RATE IS 0 0 0
Info:       CELL FLUCTUATION IS ISOTROPIC
Info: PARTICLE MESH EWALD (PME) ACTIVE
Info: PME TOLERANCE               1e-06
Info: PME EWALD COEFFICIENT       0.348832
Info: PME INTERPOLATION ORDER     4
Info: PME GRID DIMENSIONS         40 40 36
Info: PME MAXIMUM GRID SPACING    1
Info: FULL ELECTROSTATIC EVALUATION FREQUENCY      2
Info: USING VERLET I (r-RESPA) MTS SCHEME.
Info: C1 SPLITTING OF LONG RANGE ELECTROSTATICS
Info: PLACING ATOMS IN PATCHES BY HYDROGEN GROUPS
Info: RIGID BONDS TO HYDROGEN : ALL
Info:         ERROR TOLERANCE : 1e-08
Info:          MAX ITERATIONS : 100
Info: RIGID WATER USING SETTLE ALGORITHM
Info: RANDOM NUMBER SEED     1743729110
Info: USE HYDROGEN BONDS?    NO
Info: Using AMBER format force field!
Info: AMBER PARM FILE        mobley_20524.prmtop
Info: COORDINATE PDB         mobley_20524.pdb
Info: Exclusions will be read from PARM file!
Info: SCNB (VDW SCALING)     2
Info: USING ARITHMETIC MEAN TO COMBINE L-J SIGMA PARAMETERS
Info: BINARY COORDINATES     mobley_20524_min.coor
Info: SUMMARY OF PARAMETERS:
Info: 6 BONDS
Info: 4 ANGLES
Info:   4 HARMONIC
Info:   0 COSINE-BASED
Info: 3 DIHEDRAL
Info: 0 IMPROPER
Info: 0 CROSSTERM
Info: 0 VDW
Info: 15 VDW_PAIRS
Info: 0 NBTHOLE_PAIRS
Info: STRUCTURE SUMMARY:
Info: 2998 ATOMS
Info: 2998 BONDS
Info: 19 ANGLES
Info: 32 DIHEDRALS
Info: 0 IMPROPERS
Info: 0 CROSSTERMS
Info: 3040 EXCLUSIONS
Info: 13 FIXED ATOMS
Info: 2991 RIGID BONDS
Info: 6 RIGID BONDS BETWEEN FIXED ATOMS
Info: 5970 DEGREES OF FREEDOM
Info: 1002 HYDROGEN GROUPS
Info: 3 ATOMS IN LARGEST HYDROGEN GROUP
Info: 1002 MIGRATION GROUPS
Info: 3 ATOMS IN LARGEST MIGRATION GROUP
Info: 7 HYDROGEN GROUPS WITH ALL ATOMS FIXED
Info: TOTAL MASS = 18020 amu
Info: TOTAL CHARGE = -1.49012e-08 e
Info: MASS DENSITY = 0.662761 g/cm^3
Info: ATOM DENSITY = 0.0664009 atoms/A^3
Info: ADDED 0 IMPLICIT EXCLUSIONS
Info: NONBONDED TABLE R-SQUARED SPACING: 0.0625
Info: NONBONDED TABLE SIZE: 705 POINTS
Info: REMOVING COM VELOCITY 0.056031 0.215244 -0.0788844
TCL: Running for 100000 steps
ETITLE: TS BOND ANGLE DIHED IMPRP ELECT VDW BOUNDARY MISC KINETIC TOTAL TEMP POTENTIAL TOTAL3 TEMPAVG PRESSURE GPRESSURE VOLUME PRESSAVG GPRESSAVG
ENERGY: 0 0.0000 0.0000 0.0000 0.0000 -13897.7472 2428.9676 0.0000 0.0000 1758.6846 -9710.0950 296.4859 -11468.7797 -9709.7609 296.4859 384.1968 420.2765 45150.0049 384.1968 420.2765
ENERGY: 100000 0.0000 0.0000 0.0000 0.0000 -14444.0469 2438.9443 0.0000 0.0000 175.3172 -11829.7853 29.5557 -12005.1025 -11829.1503 30.9386 -675.4850 -592.8787 29097.0632 3.8201 3.6842
TCL: Running 100000 steps at 60 kelvin.
TCL: Setting parameter langevinTemp to 60
TCL: Running for 100000 steps
ETITLE: TS BOND ANGLE DIHED IMPRP ELECT VDW BOUNDARY MISC KINETIC TOTAL TEMP POTENTIAL TOTAL3 TEMPAVG PRESSURE GPRESSURE VOLUME PRESSAVG GPRESSAVG
ENERGY: 100000 0.0000 0.0000 0.0000 0.0000 -14444.0469 2438.9443 0.0000 0.0000 175.2303 -11829.8722 29.5410 -12005.1025 -11829.5083 29.5410 -654.2420 -592.9063 29097.0632 -654.2420 -592.9063
ENERGY: 200000 0.0000 0.0000 0.0000 0.0000 -14379.8515 2444.0908 0.0000 0.0000 358.7269 -11577.0339 60.4756 -11935.7608 -11576.0209 60.0062 -328.3890 -275.3388 29069.8044 3.6748 3.6858
TCL: Running 100000 steps at 90 kelvin.
TCL: Setting parameter langevinTemp to 90
TCL: Running for 100000 steps
ETITLE: TS BOND ANGLE DIHED IMPRP ELECT VDW BOUNDARY MISC KINETIC TOTAL TEMP POTENTIAL TOTAL3 TEMPAVG PRESSURE GPRESSURE VOLUME PRESSAVG GPRESSAVG
ENERGY: 200000 0.0000 0.0000 0.0000 0.0000 -14379.8515 2444.0908 0.0000 0.0000 358.5496 -11577.2112 60.4457 -11935.7608 -11576.4712 60.4457 -342.9887 -275.0240 29069.8044 -342.9887 -275.0240
ENERGY: 300000 0.0000 0.0000 0.0000 0.0000 -14232.7185 2433.2350 0.0000 0.0000 535.1816 -11264.3019 90.2230 -11799.4835 -11263.3298 89.5369 76.6991 148.5647 29063.8515 3.9639 3.8549
TCL: Running 100000 steps at 120 kelvin.
TCL: Setting parameter langevinTemp to 120
TCL: Running for 100000 steps
ETITLE: TS BOND ANGLE DIHED IMPRP ELECT VDW BOUNDARY MISC KINETIC TOTAL TEMP POTENTIAL TOTAL3 TEMPAVG PRESSURE GPRESSURE VOLUME PRESSAVG GPRESSAVG
ENERGY: 300000 0.0000 0.0000 0.0000 0.0000 -14232.7185 2433.2350 0.0000 0.0000 534.9271 -11264.5564 90.1801 -11799.4835 -11263.7357 90.1801 82.8617 147.4865 29063.8515 82.8617 147.4865
ENERGY: 400000 0.0000 0.0000 0.0000 0.0000 -14000.2241 2306.6466 0.0000 0.0000 744.1480 -10949.4295 125.4514 -11693.5775 -10946.0636 120.1070 -493.7758 -453.5354 29188.5139 4.0030 3.9499
TCL: Running 100000 steps at 150 kelvin.
TCL: Setting parameter langevinTemp to 150
TCL: Running for 100000 steps
ETITLE: TS BOND ANGLE DIHED IMPRP ELECT VDW BOUNDARY MISC KINETIC TOTAL TEMP POTENTIAL TOTAL3 TEMPAVG PRESSURE GPRESSURE VOLUME PRESSAVG GPRESSAVG
ENERGY: 400000 0.0000 0.0000 0.0000 0.0000 -14000.2241 2306.6466 0.0000 0.0000 743.7903 -10949.7872 125.3910 -11693.5775 -10948.1944 125.3910 -513.5867 -451.9265 29188.5139 -513.5867 -451.9265
ENERGY: 500000 0.0000 0.0000 0.0000 0.0000 -13829.4467 2302.9065 0.0000 0.0000 911.9656 -10614.5747 153.7427 -11526.5402 -10612.2945 150.0157 114.6532 171.4921 29094.0904 4.3124 4.3564
TCL: Running 100000 steps at 180 kelvin.
TCL: Setting parameter langevinTemp to 180
TCL: Running for 100000 steps
ETITLE: TS BOND ANGLE DIHED IMPRP ELECT VDW BOUNDARY MISC KINETIC TOTAL TEMP POTENTIAL TOTAL3 TEMPAVG PRESSURE GPRESSURE VOLUME PRESSAVG GPRESSAVG
ENERGY: 500000 0.0000 0.0000 0.0000 0.0000 -13829.4467 2302.9065 0.0000 0.0000 911.5205 -10615.0197 153.6677 -11526.5402 -10612.8278 153.6677 122.9519 170.4448 29094.0904 122.9519 170.4448
ENERGY: 600000 0.0000 0.0000 0.0000 0.0000 -13473.9565 2228.7445 0.0000 0.0000 1080.4769 -10164.7352 182.1510 -11245.2121 -10161.9792 179.7955 516.0573 525.8317 29450.4713 3.4834 3.4579
TCL: Running 100000 steps at 210 kelvin.
TCL: Setting parameter langevinTemp to 210
TCL: Running for 100000 steps
ETITLE: TS BOND ANGLE DIHED IMPRP ELECT VDW BOUNDARY MISC KINETIC TOTAL TEMP POTENTIAL TOTAL3 TEMPAVG PRESSURE GPRESSURE VOLUME PRESSAVG GPRESSAVG
ENERGY: 600000 0.0000 0.0000 0.0000 0.0000 -13473.9565 2228.7445 0.0000 0.0000 1079.9621 -10165.2500 182.0642 -11245.2121 -10163.2233 182.0642 454.0559 527.2160 29450.4713 454.0559 527.2160
ENERGY: 700000 0.0000 0.0000 0.0000 0.0000 -12540.1405 1859.6762 0.0000 0.0000 1244.1655 -9436.2988 209.7463 -10680.4644 -9432.8684 209.8080 -353.2782 -284.1683 29148.4053 3.4721 3.3378
TCL: Running 100000 steps at 240 kelvin.
TCL: Setting parameter langevinTemp to 240
TCL: Running for 100000 steps
ETITLE: TS BOND ANGLE DIHED IMPRP ELECT VDW BOUNDARY MISC KINETIC TOTAL TEMP POTENTIAL TOTAL3 TEMPAVG PRESSURE GPRESSURE VOLUME PRESSAVG GPRESSAVG
ENERGY: 700000 0.0000 0.0000 0.0000 0.0000 -12540.1405 1859.6762 0.0000 0.0000 1243.5260 -9436.9384 209.6384 -10680.4644 -9434.9302 209.6384 -363.4028 -285.7100 29148.4053 -363.4028 -285.7100
ENERGY: 800000 0.0000 0.0000 0.0000 0.0000 -11912.3773 1660.5184 0.0000 0.0000 1442.1140 -8809.7450 243.1172 -10251.8589 -8806.6641 240.3736 -636.5303 -548.1620 29807.7939 4.1465 4.2122
TCL: Running 100000 steps at 270 kelvin.
TCL: Setting parameter langevinTemp to 270
TCL: Running for 100000 steps
ETITLE: TS BOND ANGLE DIHED IMPRP ELECT VDW BOUNDARY MISC KINETIC TOTAL TEMP POTENTIAL TOTAL3 TEMPAVG PRESSURE GPRESSURE VOLUME PRESSAVG GPRESSAVG
ENERGY: 800000 0.0000 0.0000 0.0000 0.0000 -11912.3773 1660.5184 0.0000 0.0000 1441.4247 -8810.4342 243.0010 -10251.8589 -8808.2707 243.0010 -626.2100 -546.0453 29807.7939 -626.2100 -546.0453
ENERGY: 900000 0.0000 0.0000 0.0000 0.0000 -11515.4066 1601.7548 0.0000 0.0000 1618.6224 -8295.0294 272.8737 -9913.6518 -8291.2920 269.7468 -220.8442 -84.8506 30219.7586 3.8356 3.7980
TCL: Running 1000000 steps at 300 kelvin.
TCL: Setting parameter langevinTemp to 300
TCL: Running for 1000000 steps
ETITLE: TS BOND ANGLE DIHED IMPRP ELECT VDW BOUNDARY MISC KINETIC TOTAL TEMP POTENTIAL TOTAL3 TEMPAVG PRESSURE GPRESSURE VOLUME PRESSAVG GPRESSAVG
ENERGY: 900000 0.0000 0.0000 0.0000 0.0000 -11515.4066 1601.7548 0.0000 0.0000 1617.8512 -8295.8006 272.7436 -9913.6518 -8293.3155 272.7436 -165.7307 -85.9547 30219.7586 -165.7307 -85.9547
ENERGY: 1100000 0.0000 0.0000 0.0000 0.0000 -10858.5792 1440.7350 0.0000 0.0000 1780.4725 -7637.3717 300.1590 -9417.8442 -7634.0914 299.9779 -6.7945 121.4217 30754.7198 2.6912 2.7448
ENERGY: 1300000 0.0000 0.0000 0.0000 0.0000 -10879.9370 1416.4560 0.0000 0.0000 1779.7450 -7683.7359 300.0363 -9463.4809 -7680.3433 300.1750 -368.0379 -323.6076 30858.8545 4.4388 4.2695
ENERGY: 1500000 0.0000 0.0000 0.0000 0.0000 -10851.5228 1457.1418 0.0000 0.0000 1776.3757 -7618.0054 299.4683 -9394.3810 -7616.2826 301.1002 56.0252 121.0888 30921.8602 3.8378 3.8226
ENERGY: 1700000 0.0000 0.0000 0.0000 0.0000 -10912.3701 1433.9729 0.0000 0.0000 1759.4305 -7718.9667 296.6116 -9478.3972 -7714.2325 299.9295 -329.1559 -208.0134 30939.3450 3.3066 3.4815
ENERGY: 1900000 0.0000 0.0000 0.0000 0.0000 -10786.0359 1333.0141 0.0000 0.0000 1797.3957 -7655.6260 303.0120 -9453.0217 -7651.9968 301.0448 -1131.9857 -955.3890 30957.6822 3.4539 3.4206
TCL: Exiting due to exit command.
