Info: SIMULATION PARAMETERS:
Info: TIMESTEP               2
Info: NUMBER OF STEPS        0
Info: STEPS PER CYCLE        10
Info: PERIODIC CELL BASIS 1  37.435 0 0
Info: PERIODIC CELL BASIS 2  0 36.762 0
Info: PERIODIC CELL BASIS 3  0 0 31.349
Info: PERIODIC CELL CENTER   0 0 0
Info: WRAPPING WATERS AROUND PERIODIC BOUNDARIES ON OUTPUT.
Info: WRAPPING ALL CLUSTERS AROUND PERIODIC BOUNDARIES ON OUTPUT.
Info: FIRST LDB TIMESTEP     50
Info: LAST LDB TIMESTEP     -1
Info: HOM BACKGROUND SCALING 1
Info: PME BACKGROUND SCALING 1
Info: MIN ATOMS PER PATCH    40
Info: EMPTY PATCH LOAD       40 ATOMS
Info: INITIAL TEMPERATURE    300
Info: CENTER OF MASS MOVING INITIALLY? NO
Info: DIELECTRIC             1
Info: EXCLUDE                SCALED ONE-FOUR
Info: 1-4 ELECTROSTATICS SCALED BY 0.833333
Info: MODIFIED 1-4 VDW PARAMETERS WILL BE USED
Info: DCD FILENAME           mobley_1855337_equil.dcd
Info: DCD FREQUENCY          100000
Info: DCD FIRST STEP         100000
Info: DCD FILE WILL CONTAIN UNIT CELL DATA
Info: XST FILENAME           mobley_1855337_equil.xst
Info: XST FREQUENCY          100000
Info: NO VELOCITY DCD OUTPUT
Info: NO FORCE DCD OUTPUT
Info: OUTPUT FILENAME        mobley_1855337_equil
Info: BINARY OUTPUT FILES WILL BE USED
Info: RESTART FILENAME       mobley_1855337_equil.restart
Info: RESTART FREQUENCY      100000
Info: BINARY RESTART FILES WILL BE USED
Info: CUTOFF                 9
Info: PAIRLIST DISTANCE      11
Info: PAIRLIST SHRINK RATE   0.01
Info: PAIRLIST GROW RATE     0.01
Info: PAIRLIST TRIGGER       0.3
Info: PAIRLISTS PER CYCLE    2
Info: PAIRLISTS ENABLED
Info: MARGIN                 8
Info: HYDROGEN GROUP CUTOFF  2.5
Info: PATCH DIMENSION        21.5
Info: ENERGY OUTPUT STEPS    100000
Info: ENERGY EVALUATION STEPS    100000
Info: OUTPUT ENERGY PRECISION 4
Info: CROSSTERM ENERGY INCLUDED IN DIHEDRAL
Info: TIMING OUTPUT STEPS    1000000
Info: PRESSURE OUTPUT STEPS  100000
Info: FIXED ATOMS ACTIVE
Info: LANGEVIN DYNAMICS ACTIVE
Info: LANGEVIN TEMPERATURE   30
Info: LANGEVIN USING BBK INTEGRATOR
Info: LANGEVIN DAMPING COEFFICIENT IS 1 INVERSE PS
Info: LANGEVIN DYNAMICS APPLIED TO HYDROGENS
Info: LANGEVIN PISTON PRESSURE CONTROL ACTIVE
Info:        TARGET PRESSURE IS 1.01325 BAR
Info:     OSCILLATION PERIOD IS 50 FS
Info:             DECAY TIME IS 25 FS
Info:     PISTON TEMPERATURE IS 300 K
Info:       PRESSURE CONTROL IS GROUP-BASED
Info:    INITIAL STRAIN RATE IS 0 0 0
Info:       CELL FLUCTUATION IS ISOTROPIC
Info: PARTICLE MESH EWALD (PME) ACTIVE
Info: PME TOLERANCE               1e-06
Info: PME EWALD COEFFICIENT       0.348832
Info: PME INTERPOLATION ORDER     4
Info: PME GRID DIMENSIONS         40 40 32
Info: PME MAXIMUM GRID SPACING    1
Info: FULL ELECTROSTATIC EVALUATION FREQUENCY      2
Info: USING VERLET I (r-RESPA) MTS SCHEME.
Info: C1 SPLITTING OF LONG RANGE ELECTROSTATICS
Info: PLACING ATOMS IN PATCHES BY HYDROGEN GROUPS
Info: RIGID BONDS TO HYDROGEN : ALL
Info:         ERROR TOLERANCE : 1e-08
Info:          MAX ITERATIONS : 100
Info: RIGID WATER USING SETTLE ALGORITHM
Info: RANDOM NUMBER SEED     1743687462
Info: USE HYDROGEN BONDS?    NO
Info: Using AMBER format force field!
Info: AMBER PARM FILE        mobley_1855337.prmtop
Info: COORDINATE PDB         mobley_1855337.pdb
Info: Exclusions will be read from PARM file!
Info: SCNB (VDW SCALING)     2
Info: USING ARITHMETIC MEAN TO COMBINE L-J SIGMA PARAMETERS
Info: BINARY COORDINATES     mobley_1855337_min.coor
Info: SUMMARY OF PARAMETERS:
Info: 5 BONDS
Info: 3 ANGLES
Info:   3 HARMONIC
Info:   0 COSINE-BASED
Info: 2 DIHEDRAL
Info: 0 IMPROPER
Info: 0 CROSSTERM
Info: 0 VDW
Info: 15 VDW_PAIRS
Info: 0 NBTHOLE_PAIRS
Info: STRUCTURE SUMMARY:
Info: 2967 ATOMS
Info: 2967 BONDS
Info: 18 ANGLES
Info: 30 DIHEDRALS
Info: 0 IMPROPERS
Info: 0 CROSSTERMS
Info: 3006 EXCLUSIONS
Info: 12 FIXED ATOMS
Info: 2957 RIGID BONDS
Info: 2 RIGID BONDS BETWEEN FIXED ATOMS
Info: 5910 DEGREES OF FREEDOM
Info: 995 HYDROGEN GROUPS
Info: 3 ATOMS IN LARGEST HYDROGEN GROUP
Info: 995 MIGRATION GROUPS
Info: 3 ATOMS IN LARGEST MIGRATION GROUP
Info: 10 HYDROGEN GROUPS WITH ALL ATOMS FIXED
Info: TOTAL MASS = 17961.6 amu
Info: TOTAL CHARGE = 0.000199986 e
Info: MASS DENSITY = 0.69136 g/cm^3
Info: ATOM DENSITY = 0.0687728 atoms/A^3
Info: ADDED 0 IMPLICIT EXCLUSIONS
Info: NONBONDED TABLE R-SQUARED SPACING: 0.0625
Info: NONBONDED TABLE SIZE: 705 POINTS
Info: REMOVING COM VELOCITY 0.0743717 0.119639 0.140841
TCL: Running for 100000 steps
ETITLE: TS BOND ANGLE DIHED IMPRP ELECT VDW BOUNDARY MISC KINETIC TOTAL TEMP POTENTIAL TOTAL3 TEMPAVG PRESSURE GPRESSURE VOLUME PRESSAVG GPRESSAVG
ENERGY: 0 0.0000 0.0000 0.0000 0.0000 -13751.7610 2354.8162 0.0000 0.0000 1733.6738 -9663.2710 295.2367 -11396.9448 -9662.9251 295.2367 -48.7529 -9.0236 43142.0383 -48.7529 -9.0236
ENERGY: 100000 0.0000 0.0000 0.0000 0.0000 -14122.6460 2321.7540 0.0000 0.0000 177.4242 -11623.4678 30.2145 -11800.8920 -11622.9124 30.8605 -1500.4340 -1432.5238 30339.0378 3.8255 3.8192
TCL: Running 100000 steps at 60 kelvin.
TCL: Setting parameter langevinTemp to 60
TCL: Running for 100000 steps
ETITLE: TS BOND ANGLE DIHED IMPRP ELECT VDW BOUNDARY MISC KINETIC TOTAL TEMP POTENTIAL TOTAL3 TEMPAVG PRESSURE GPRESSURE VOLUME PRESSAVG GPRESSAVG
ENERGY: 100000 0.0000 0.0000 0.0000 0.0000 -14122.6460 2321.7540 0.0000 0.0000 177.3345 -11623.5575 30.1992 -11800.8920 -11623.1604 30.1992 -1489.0553 -1432.5449 30339.0378 -1489.0553 -1432.5449
ENERGY: 200000 0.0000 0.0000 0.0000 0.0000 -14070.7700 2337.4173 0.0000 0.0000 346.6772 -11386.6755 59.0375 -11733.3527 -11386.3513 59.9436 -1059.0665 -1005.7738 29896.1715 4.8475 4.8050
TCL: Running 100000 steps at 90 kelvin.
TCL: Setting parameter langevinTemp to 90
TCL: Running for 100000 steps
ETITLE: TS BOND ANGLE DIHED IMPRP ELECT VDW BOUNDARY MISC KINETIC TOTAL TEMP POTENTIAL TOTAL3 TEMPAVG PRESSURE GPRESSURE VOLUME PRESSAVG GPRESSAVG
ENERGY: 200000 0.0000 0.0000 0.0000 0.0000 -14070.7700 2337.4173 0.0000 0.0000 346.5030 -11386.8497 59.0079 -11733.3527 -11385.9168 59.0079 -1050.3874 -1006.4282 29896.1715 -1050.3874 -1006.4282
ENERGY: 300000 0.0000 0.0000 0.0000 0.0000 -14025.2930 2402.8469 0.0000 0.0000 537.7409 -11084.7052 91.5748 -11622.4461 -11082.6102 89.8221 185.0113 216.5456 29205.1855 3.5610 3.4638
TCL: Running 100000 steps at 120 kelvin.
TCL: Setting parameter langevinTemp to 120
TCL: Running for 100000 steps
ETITLE: TS BOND ANGLE DIHED IMPRP ELECT VDW BOUNDARY MISC KINETIC TOTAL TEMP POTENTIAL TOTAL3 TEMPAVG PRESSURE GPRESSURE VOLUME PRESSAVG GPRESSAVG
ENERGY: 300000 0.0000 0.0000 0.0000 0.0000 -14025.2930 2402.8469 0.0000 0.0000 537.4787 -11084.9675 91.5301 -11622.4461 -11083.9251 91.5301 166.8732 217.6602 29205.1855 166.8732 217.6602
ENERGY: 400000 0.0000 0.0000 0.0000 0.0000 -13918.6822 2419.6933 0.0000 0.0000 727.5668 -10771.4220 123.9013 -11498.9889 -10770.1622 119.8633 699.9865 711.1113 29340.7048 4.3035 4.2308
TCL: Running 100000 steps at 150 kelvin.
TCL: Setting parameter langevinTemp to 150
TCL: Running for 100000 steps
ETITLE: TS BOND ANGLE DIHED IMPRP ELECT VDW BOUNDARY MISC KINETIC TOTAL TEMP POTENTIAL TOTAL3 TEMPAVG PRESSURE GPRESSURE VOLUME PRESSAVG GPRESSAVG
ENERGY: 400000 0.0000 0.0000 0.0000 0.0000 -13918.6822 2419.6933 0.0000 0.0000 727.2078 -10771.7811 123.8401 -11498.9889 -10770.2373 123.8401 648.6652 710.8827 29340.7048 648.6652 710.8827
ENERGY: 500000 0.0000 0.0000 0.0000 0.0000 -13571.2714 2230.0230 0.0000 0.0000 871.2989 -10469.9494 148.3782 -11341.2483 -10469.0388 150.1473 -241.8124 -159.3264 29164.7999 4.2958 4.3313
TCL: Running 100000 steps at 180 kelvin.
TCL: Setting parameter langevinTemp to 180
TCL: Running for 100000 steps
ETITLE: TS BOND ANGLE DIHED IMPRP ELECT VDW BOUNDARY MISC KINETIC TOTAL TEMP POTENTIAL TOTAL3 TEMPAVG PRESSURE GPRESSURE VOLUME PRESSAVG GPRESSAVG
ENERGY: 500000 0.0000 0.0000 0.0000 0.0000 -13571.2714 2230.0230 0.0000 0.0000 870.8602 -10470.3882 148.3035 -11341.2483 -10468.3889 148.3035 -207.1662 -161.6366 29164.7999 -207.1662 -161.6366
ENERGY: 600000 0.0000 0.0000 0.0000 0.0000 -13090.6657 2055.8027 0.0000 0.0000 1039.3527 -9995.5102 176.9970 -11034.8629 -9994.0667 179.5493 -649.4635 -576.4698 29416.4396 3.4456 3.4344
TCL: Running 100000 steps at 210 kelvin.
TCL: Setting parameter langevinTemp to 210
TCL: Running for 100000 steps
ETITLE: TS BOND ANGLE DIHED IMPRP ELECT VDW BOUNDARY MISC KINETIC TOTAL TEMP POTENTIAL TOTAL3 TEMPAVG PRESSURE GPRESSURE VOLUME PRESSAVG GPRESSAVG
ENERGY: 600000 0.0000 0.0000 0.0000 0.0000 -13090.6657 2055.8027 0.0000 0.0000 1038.8322 -9996.0307 176.9083 -11034.8629 -9994.1872 176.9083 -647.3004 -577.3166 29416.4396 -647.3004 -577.3166
ENERGY: 700000 0.0000 0.0000 0.0000 0.0000 -12450.5596 1900.0999 0.0000 0.0000 1247.9632 -9302.4965 212.5224 -10550.4597 -9300.0539 210.1371 195.1271 263.9144 29049.8252 2.7033 2.6909
TCL: Running 100000 steps at 240 kelvin.
TCL: Setting parameter langevinTemp to 240
TCL: Running for 100000 steps
ETITLE: TS BOND ANGLE DIHED IMPRP ELECT VDW BOUNDARY MISC KINETIC TOTAL TEMP POTENTIAL TOTAL3 TEMPAVG PRESSURE GPRESSURE VOLUME PRESSAVG GPRESSAVG
ENERGY: 700000 0.0000 0.0000 0.0000 0.0000 -12450.5596 1900.0999 0.0000 0.0000 1247.3071 -9303.1526 212.4107 -10550.4597 -9300.9016 212.4107 190.6611 263.8455 29049.8252 190.6611 263.8455
ENERGY: 800000 0.0000 0.0000 0.0000 0.0000 -11746.4038 1658.6760 0.0000 0.0000 1417.5509 -8670.1769 241.4024 -10087.7279 -8666.3187 239.8740 -310.0750 -246.5923 29507.0255 4.0579 4.1022
TCL: Running 100000 steps at 270 kelvin.
TCL: Setting parameter langevinTemp to 270
TCL: Running for 100000 steps
ETITLE: TS BOND ANGLE DIHED IMPRP ELECT VDW BOUNDARY MISC KINETIC TOTAL TEMP POTENTIAL TOTAL3 TEMPAVG PRESSURE GPRESSURE VOLUME PRESSAVG GPRESSAVG
ENERGY: 800000 0.0000 0.0000 0.0000 0.0000 -11746.4038 1658.6760 0.0000 0.0000 1416.8565 -8670.8714 241.2841 -10087.7279 -8668.4154 241.2841 -338.9993 -246.3441 29507.0255 -338.9993 -246.3441
ENERGY: 900000 0.0000 0.0000 0.0000 0.0000 -11306.8280 1563.3036 0.0000 0.0000 1559.6370 -8183.8874 265.5990 -9743.5244 -8180.3683 270.0403 -335.5900 -210.8398 30212.2009 3.8647 3.8391
TCL: Running 1000000 steps at 300 kelvin.
TCL: Setting parameter langevinTemp to 300
TCL: Running for 1000000 steps
ETITLE: TS BOND ANGLE DIHED IMPRP ELECT VDW BOUNDARY MISC KINETIC TOTAL TEMP POTENTIAL TOTAL3 TEMPAVG PRESSURE GPRESSURE VOLUME PRESSAVG GPRESSAVG
ENERGY: 900000 0.0000 0.0000 0.0000 0.0000 -11306.8280 1563.3036 0.0000 0.0000 1558.8737 -8184.6507 265.4690 -9743.5244 -8182.2008 265.4690 -293.7252 -210.3456 30212.2009 -293.7252 -210.3456
ENERGY: 1100000 0.0000 0.0000 0.0000 0.0000 -10714.2268 1401.3830 0.0000 0.0000 1793.9558 -7518.8880 305.5024 -9312.8439 -7516.2510 299.8621 -286.6367 -172.5744 30801.8470 3.3461 3.3975
ENERGY: 1300000 0.0000 0.0000 0.0000 0.0000 -10752.7820 1538.6382 0.0000 0.0000 1716.2107 -7497.9331 292.2628 -9214.1438 -7495.7622 300.5751 794.7308 856.4026 30969.0148 2.0177 1.9376
ENERGY: 1500000 0.0000 0.0000 0.0000 0.0000 -10791.3672 1487.6029 0.0000 0.0000 1762.4636 -7541.3007 300.1394 -9303.7643 -7536.8296 299.6542 26.0058 90.6775 31340.5641 2.6700 2.7458
ENERGY: 1700000 0.0000 0.0000 0.0000 0.0000 -10621.2256 1348.0204 0.0000 0.0000 1748.1204 -7525.0848 297.6969 -9273.2052 -7524.5694 299.9521 -743.3291 -596.6366 30931.2777 3.3522 3.5855
ENERGY: 1900000 0.0000 0.0000 0.0000 0.0000 -10879.8904 1451.7039 0.0000 0.0000 1824.5383 -7603.6481 310.7105 -9428.1864 -7600.1764 300.2305 -256.6699 -158.9236 30880.7529 2.2373 2.3984
TCL: Exiting due to exit command.
