Info: SIMULATION PARAMETERS:
Info: TIMESTEP               2
Info: NUMBER OF STEPS        0
Info: STEPS PER CYCLE        10
Info: PERIODIC CELL BASIS 1  37.435 0 0
Info: PERIODIC CELL BASIS 2  0 34.26 0
Info: PERIODIC CELL BASIS 3  0 0 34.229
Info: PERIODIC CELL CENTER   0 0 0
Info: WRAPPING WATERS AROUND PERIODIC BOUNDARIES ON OUTPUT.
Info: WRAPPING ALL CLUSTERS AROUND PERIODIC BOUNDARIES ON OUTPUT.
Info: FIRST LDB TIMESTEP     50
Info: LAST LDB TIMESTEP     -1
Info: HOM BACKGROUND SCALING 1
Info: PME BACKGROUND SCALING 1
Info: MIN ATOMS PER PATCH    40
Info: EMPTY PATCH LOAD       40 ATOMS
Info: INITIAL TEMPERATURE    300
Info: CENTER OF MASS MOVING INITIALLY? NO
Info: DIELECTRIC             1
Info: EXCLUDE                SCALED ONE-FOUR
Info: 1-4 ELECTROSTATICS SCALED BY 0.833333
Info: MODIFIED 1-4 VDW PARAMETERS WILL BE USED
Info: DCD FILENAME           mobley_1923244_equil.dcd
Info: DCD FREQUENCY          100000
Info: DCD FIRST STEP         100000
Info: DCD FILE WILL CONTAIN UNIT CELL DATA
Info: XST FILENAME           mobley_1923244_equil.xst
Info: XST FREQUENCY          100000
Info: NO VELOCITY DCD OUTPUT
Info: NO FORCE DCD OUTPUT
Info: OUTPUT FILENAME        mobley_1923244_equil
Info: BINARY OUTPUT FILES WILL BE USED
Info: RESTART FILENAME       mobley_1923244_equil.restart
Info: RESTART FREQUENCY      100000
Info: BINARY RESTART FILES WILL BE USED
Info: CUTOFF                 9
Info: PAIRLIST DISTANCE      11
Info: PAIRLIST SHRINK RATE   0.01
Info: PAIRLIST GROW RATE     0.01
Info: PAIRLIST TRIGGER       0.3
Info: PAIRLISTS PER CYCLE    2
Info: PAIRLISTS ENABLED
Info: MARGIN                 8
Info: HYDROGEN GROUP CUTOFF  2.5
Info: PATCH DIMENSION        21.5
Info: ENERGY OUTPUT STEPS    100000
Info: ENERGY EVALUATION STEPS    100000
Info: OUTPUT ENERGY PRECISION 4
Info: CROSSTERM ENERGY INCLUDED IN DIHEDRAL
Info: TIMING OUTPUT STEPS    1000000
Info: PRESSURE OUTPUT STEPS  100000
Info: FIXED ATOMS ACTIVE
Info: LANGEVIN DYNAMICS ACTIVE
Info: LANGEVIN TEMPERATURE   30
Info: LANGEVIN USING BBK INTEGRATOR
Info: LANGEVIN DAMPING COEFFICIENT IS 1 INVERSE PS
Info: LANGEVIN DYNAMICS APPLIED TO HYDROGENS
Info: LANGEVIN PISTON PRESSURE CONTROL ACTIVE
Info:        TARGET PRESSURE IS 1.01325 BAR
Info:     OSCILLATION PERIOD IS 50 FS
Info:             DECAY TIME IS 25 FS
Info:     PISTON TEMPERATURE IS 300 K
Info:       PRESSURE CONTROL IS GROUP-BASED
Info:    INITIAL STRAIN RATE IS 0 0 0
Info:       CELL FLUCTUATION IS ISOTROPIC
Info: PARTICLE MESH EWALD (PME) ACTIVE
Info: PME TOLERANCE               1e-06
Info: PME EWALD COEFFICIENT       0.348832
Info: PME INTERPOLATION ORDER     4
Info: PME GRID DIMENSIONS         40 36 36
Info: PME MAXIMUM GRID SPACING    1
Info: FULL ELECTROSTATIC EVALUATION FREQUENCY      2
Info: USING VERLET I (r-RESPA) MTS SCHEME.
Info: C1 SPLITTING OF LONG RANGE ELECTROSTATICS
Info: PLACING ATOMS IN PATCHES BY HYDROGEN GROUPS
Info: RIGID BONDS TO HYDROGEN : ALL
Info:         ERROR TOLERANCE : 1e-08
Info:          MAX ITERATIONS : 100
Info: RIGID WATER USING SETTLE ALGORITHM
Info: RANDOM NUMBER SEED     1743901073
Info: USE HYDROGEN BONDS?    NO
Info: Using AMBER format force field!
Info: AMBER PARM FILE        mobley_1923244.prmtop
Info: COORDINATE PDB         mobley_1923244.pdb
Info: Exclusions will be read from PARM file!
Info: SCNB (VDW SCALING)     2
Info: USING ARITHMETIC MEAN TO COMBINE L-J SIGMA PARAMETERS
Info: BINARY COORDINATES     mobley_1923244_min.coor
Info: SUMMARY OF PARAMETERS:
Info: 4 BONDS
Info: 3 ANGLES
Info:   3 HARMONIC
Info:   0 COSINE-BASED
Info: 5 DIHEDRAL
Info: 0 IMPROPER
Info: 0 CROSSTERM
Info: 0 VDW
Info: 10 VDW_PAIRS
Info: 0 NBTHOLE_PAIRS
Info: STRUCTURE SUMMARY:
Info: 2993 ATOMS
Info: 2992 BONDS
Info: 24 ANGLES
Info: 29 DIHEDRALS
Info: 0 IMPROPERS
Info: 0 CROSSTERMS
Info: 3043 EXCLUSIONS
Info: 14 FIXED ATOMS
Info: 2989 RIGID BONDS
Info: 10 RIGID BONDS BETWEEN FIXED ATOMS
Info: 5958 DEGREES OF FREEDOM
Info: 997 HYDROGEN GROUPS
Info: 4 ATOMS IN LARGEST HYDROGEN GROUP
Info: 997 MIGRATION GROUPS
Info: 4 ATOMS IN LARGEST MIGRATION GROUP
Info: 4 HYDROGEN GROUPS WITH ALL ATOMS FIXED
Info: TOTAL MASS = 17948 amu
Info: TOTAL CHARGE = 0.000200011 e
Info: MASS DENSITY = 0.678916 g/cm^3
Info: ATOM DENSITY = 0.0681785 atoms/A^3
Info: ADDED 0 IMPLICIT EXCLUSIONS
Info: NONBONDED TABLE R-SQUARED SPACING: 0.0625
Info: NONBONDED TABLE SIZE: 705 POINTS
Info: REMOVING COM VELOCITY -0.028905 -0.014294 0.135526
TCL: Running for 100000 steps
ETITLE: TS BOND ANGLE DIHED IMPRP ELECT VDW BOUNDARY MISC KINETIC TOTAL TEMP POTENTIAL TOTAL3 TEMPAVG PRESSURE GPRESSURE VOLUME PRESSAVG GPRESSAVG
ENERGY: 0 0.0000 0.0000 0.0000 0.0000 -13798.8065 2391.9162 0.0000 0.0000 1725.5207 -9681.3696 291.4809 -11406.8903 -9681.0288 291.4809 62.4676 100.9553 43899.4832 62.4676 100.9553
ENERGY: 100000 0.0000 0.0000 0.0000 0.0000 -14427.3610 2538.7962 0.0000 0.0000 171.9484 -11716.6164 29.0461 -11888.5649 -11716.1788 30.8864 355.2271 431.2878 29426.4141 4.4634 4.4158
TCL: Running 100000 steps at 60 kelvin.
TCL: Setting parameter langevinTemp to 60
TCL: Running for 100000 steps
ETITLE: TS BOND ANGLE DIHED IMPRP ELECT VDW BOUNDARY MISC KINETIC TOTAL TEMP POTENTIAL TOTAL3 TEMPAVG PRESSURE GPRESSURE VOLUME PRESSAVG GPRESSAVG
ENERGY: 100000 0.0000 0.0000 0.0000 0.0000 -14427.3610 2538.7962 0.0000 0.0000 171.8598 -11716.7051 29.0312 -11888.5649 -11716.4223 29.0312 349.5648 431.2614 29426.4141 349.5648 431.2614
ENERGY: 200000 0.0000 0.0000 0.0000 0.0000 -14264.9274 2446.9970 0.0000 0.0000 350.2056 -11467.7247 59.1579 -11817.9303 -11466.5507 60.0150 -154.2234 -102.3152 29737.6257 4.1821 4.1356
TCL: Running 100000 steps at 90 kelvin.
TCL: Setting parameter langevinTemp to 90
TCL: Running for 100000 steps
ETITLE: TS BOND ANGLE DIHED IMPRP ELECT VDW BOUNDARY MISC KINETIC TOTAL TEMP POTENTIAL TOTAL3 TEMPAVG PRESSURE GPRESSURE VOLUME PRESSAVG GPRESSAVG
ENERGY: 200000 0.0000 0.0000 0.0000 0.0000 -14264.9274 2446.9970 0.0000 0.0000 350.0336 -11467.8968 59.1289 -11817.9303 -11467.2913 59.1289 -164.3159 -102.0786 29737.6257 -164.3159 -102.0786
ENERGY: 300000 0.0000 0.0000 0.0000 0.0000 -14027.2112 2332.1072 0.0000 0.0000 532.4303 -11162.6737 89.9400 -11695.1040 -11161.2484 89.9713 -663.5688 -600.4615 29843.6204 4.0221 4.0767
TCL: Running 100000 steps at 120 kelvin.
TCL: Setting parameter langevinTemp to 120
TCL: Running for 100000 steps
ETITLE: TS BOND ANGLE DIHED IMPRP ELECT VDW BOUNDARY MISC KINETIC TOTAL TEMP POTENTIAL TOTAL3 TEMPAVG PRESSURE GPRESSURE VOLUME PRESSAVG GPRESSAVG
ENERGY: 300000 0.0000 0.0000 0.0000 0.0000 -14027.2112 2332.1072 0.0000 0.0000 532.1599 -11162.9441 89.8943 -11695.1040 -11162.0398 89.8943 -654.3102 -601.0671 29843.6204 -654.3102 -601.0671
ENERGY: 400000 0.0000 0.0000 0.0000 0.0000 -13970.4695 2359.7392 0.0000 0.0000 695.7216 -10915.0087 117.5237 -11610.7303 -10912.5104 119.8810 -82.8060 -22.8673 29484.6691 2.7638 2.8194
TCL: Running 100000 steps at 150 kelvin.
TCL: Setting parameter langevinTemp to 150
TCL: Running for 100000 steps
ETITLE: TS BOND ANGLE DIHED IMPRP ELECT VDW BOUNDARY MISC KINETIC TOTAL TEMP POTENTIAL TOTAL3 TEMPAVG PRESSURE GPRESSURE VOLUME PRESSAVG GPRESSAVG
ENERGY: 400000 0.0000 0.0000 0.0000 0.0000 -13970.4695 2359.7392 0.0000 0.0000 695.3572 -10915.3730 117.4621 -11610.7303 -10914.2472 117.4621 -68.9994 -21.4693 29484.6691 -68.9994 -21.4693
ENERGY: 500000 0.0000 0.0000 0.0000 0.0000 -13835.3521 2410.4442 0.0000 0.0000 908.1889 -10516.7191 153.4144 -11424.9080 -10515.0438 150.3282 871.0893 925.8137 29413.2755 4.2703 4.1629
TCL: Running 100000 steps at 180 kelvin.
TCL: Setting parameter langevinTemp to 180
TCL: Running for 100000 steps
ETITLE: TS BOND ANGLE DIHED IMPRP ELECT VDW BOUNDARY MISC KINETIC TOTAL TEMP POTENTIAL TOTAL3 TEMPAVG PRESSURE GPRESSURE VOLUME PRESSAVG GPRESSAVG
ENERGY: 500000 0.0000 0.0000 0.0000 0.0000 -13835.3521 2410.4442 0.0000 0.0000 907.7460 -10517.1620 153.3396 -11424.9080 -10515.6484 153.3396 868.2698 926.3067 29413.2755 868.2698 926.3067
ENERGY: 600000 0.0000 0.0000 0.0000 0.0000 -13359.0479 2185.1409 0.0000 0.0000 1087.5878 -10086.3191 183.7191 -11173.9069 -10083.6968 179.9781 182.8862 270.9024 29349.1304 3.9593 4.0858
TCL: Running 100000 steps at 210 kelvin.
TCL: Setting parameter langevinTemp to 210
TCL: Running for 100000 steps
ETITLE: TS BOND ANGLE DIHED IMPRP ELECT VDW BOUNDARY MISC KINETIC TOTAL TEMP POTENTIAL TOTAL3 TEMPAVG PRESSURE GPRESSURE VOLUME PRESSAVG GPRESSAVG
ENERGY: 600000 0.0000 0.0000 0.0000 0.0000 -13359.0479 2185.1409 0.0000 0.0000 1087.0672 -10086.8397 183.6311 -11173.9069 -10084.5779 183.6311 214.6383 271.2235 29349.1304 214.6383 271.2235
ENERGY: 700000 0.0000 0.0000 0.0000 0.0000 -12581.8524 1913.0341 0.0000 0.0000 1240.6510 -9428.1673 209.5750 -10668.8183 -9424.1489 209.8648 234.1330 276.2739 28785.4374 3.5395 3.5980
TCL: Running 100000 steps at 240 kelvin.
TCL: Setting parameter langevinTemp to 240
TCL: Running for 100000 steps
ETITLE: TS BOND ANGLE DIHED IMPRP ELECT VDW BOUNDARY MISC KINETIC TOTAL TEMP POTENTIAL TOTAL3 TEMPAVG PRESSURE GPRESSURE VOLUME PRESSAVG GPRESSAVG
ENERGY: 700000 0.0000 0.0000 0.0000 0.0000 -12581.8524 1913.0341 0.0000 0.0000 1240.0220 -9428.7963 209.4688 -10668.8183 -9426.6815 209.4688 174.4211 276.1956 28785.4374 174.4211 276.1956
ENERGY: 800000 0.0000 0.0000 0.0000 0.0000 -11994.3911 1741.2616 0.0000 0.0000 1422.6980 -8830.4316 240.3270 -10253.1295 -8827.3310 239.6341 23.2983 109.8728 29133.2100 3.5208 3.4277
TCL: Running 100000 steps at 270 kelvin.
TCL: Setting parameter langevinTemp to 270
TCL: Running for 100000 steps
ETITLE: TS BOND ANGLE DIHED IMPRP ELECT VDW BOUNDARY MISC KINETIC TOTAL TEMP POTENTIAL TOTAL3 TEMPAVG PRESSURE GPRESSURE VOLUME PRESSAVG GPRESSAVG
ENERGY: 800000 0.0000 0.0000 0.0000 0.0000 -11994.3911 1741.2616 0.0000 0.0000 1422.0236 -8831.1059 240.2131 -10253.1295 -8828.4401 240.2131 29.7037 109.6337 29133.2100 29.7037 109.6337
ENERGY: 900000 0.0000 0.0000 0.0000 0.0000 -11244.5779 1525.2744 0.0000 0.0000 1627.1760 -8092.1275 274.8682 -9719.3035 -8091.4221 269.7578 -392.0994 -293.4927 30370.2593 2.5327 2.6170
TCL: Running 1000000 steps at 300 kelvin.
TCL: Setting parameter langevinTemp to 300
TCL: Running for 1000000 steps
ETITLE: TS BOND ANGLE DIHED IMPRP ELECT VDW BOUNDARY MISC KINETIC TOTAL TEMP POTENTIAL TOTAL3 TEMPAVG PRESSURE GPRESSURE VOLUME PRESSAVG GPRESSAVG
ENERGY: 900000 0.0000 0.0000 0.0000 0.0000 -11244.5779 1525.2744 0.0000 0.0000 1626.4132 -8092.8903 274.7393 -9719.3035 -8090.7168 274.7393 -387.8732 -296.6528 30370.2593 -387.8732 -296.6528
ENERGY: 1100000 0.0000 0.0000 0.0000 0.0000 -10846.6146 1383.7039 0.0000 0.0000 1780.6292 -7682.2815 300.7900 -9462.9108 -7676.6741 299.3127 -816.0144 -696.1896 30913.5711 2.4379 2.3968
ENERGY: 1300000 0.0000 0.0000 0.0000 0.0000 -10872.6724 1420.4860 0.0000 0.0000 1798.4962 -7653.6902 303.8081 -9452.1864 -7647.6856 299.8520 -397.8570 -265.1231 30658.9045 3.7361 3.6034
ENERGY: 1500000 0.0000 0.0000 0.0000 0.0000 -10828.0172 1400.6360 0.0000 0.0000 1786.2422 -7641.1390 301.7382 -9427.3812 -7637.6236 300.5849 -465.8909 -295.6581 30567.9192 3.6583 3.8068
ENERGY: 1700000 0.0000 0.0000 0.0000 0.0000 -10844.2142 1435.9213 0.0000 0.0000 1771.0673 -7637.2256 299.1748 -9408.2929 -7633.1363 301.0760 -326.9678 -198.2177 30857.9767 2.5084 2.6880
ENERGY: 1900000 0.0000 0.0000 0.0000 0.0000 -10821.0346 1472.8881 0.0000 0.0000 1795.8842 -7552.2623 303.3669 -9348.1465 -7547.3541 300.5476 184.6966 268.6830 31005.4073 3.9540 3.9837
TCL: Exiting due to exit command.
