Info: SIMULATION PARAMETERS:
Info: TIMESTEP               2
Info: NUMBER OF STEPS        0
Info: STEPS PER CYCLE        10
Info: PERIODIC CELL BASIS 1  37.435 0 0
Info: PERIODIC CELL BASIS 2  0 35.779 0
Info: PERIODIC CELL BASIS 3  0 0 31.855
Info: PERIODIC CELL CENTER   0 0 0
Info: WRAPPING WATERS AROUND PERIODIC BOUNDARIES ON OUTPUT.
Info: WRAPPING ALL CLUSTERS AROUND PERIODIC BOUNDARIES ON OUTPUT.
Info: FIRST LDB TIMESTEP     50
Info: LAST LDB TIMESTEP     -1
Info: HOM BACKGROUND SCALING 1
Info: PME BACKGROUND SCALING 1
Info: MIN ATOMS PER PATCH    40
Info: EMPTY PATCH LOAD       40 ATOMS
Info: INITIAL TEMPERATURE    300
Info: CENTER OF MASS MOVING INITIALLY? NO
Info: DIELECTRIC             1
Info: EXCLUDE                SCALED ONE-FOUR
Info: 1-4 ELECTROSTATICS SCALED BY 0.833333
Info: MODIFIED 1-4 VDW PARAMETERS WILL BE USED
Info: DCD FILENAME           mobley_5520946_equil.dcd
Info: DCD FREQUENCY          100000
Info: DCD FIRST STEP         100000
Info: DCD FILE WILL CONTAIN UNIT CELL DATA
Info: XST FILENAME           mobley_5520946_equil.xst
Info: XST FREQUENCY          100000
Info: NO VELOCITY DCD OUTPUT
Info: NO FORCE DCD OUTPUT
Info: OUTPUT FILENAME        mobley_5520946_equil
Info: BINARY OUTPUT FILES WILL BE USED
Info: RESTART FILENAME       mobley_5520946_equil.restart
Info: RESTART FREQUENCY      100000
Info: BINARY RESTART FILES WILL BE USED
Info: CUTOFF                 9
Info: PAIRLIST DISTANCE      11
Info: PAIRLIST SHRINK RATE   0.01
Info: PAIRLIST GROW RATE     0.01
Info: PAIRLIST TRIGGER       0.3
Info: PAIRLISTS PER CYCLE    2
Info: PAIRLISTS ENABLED
Info: MARGIN                 8
Info: HYDROGEN GROUP CUTOFF  2.5
Info: PATCH DIMENSION        21.5
Info: ENERGY OUTPUT STEPS    100000
Info: ENERGY EVALUATION STEPS    100000
Info: OUTPUT ENERGY PRECISION 4
Info: CROSSTERM ENERGY INCLUDED IN DIHEDRAL
Info: TIMING OUTPUT STEPS    1000000
Info: PRESSURE OUTPUT STEPS  100000
Info: FIXED ATOMS ACTIVE
Info: LANGEVIN DYNAMICS ACTIVE
Info: LANGEVIN TEMPERATURE   30
Info: LANGEVIN USING BBK INTEGRATOR
Info: LANGEVIN DAMPING COEFFICIENT IS 1 INVERSE PS
Info: LANGEVIN DYNAMICS APPLIED TO HYDROGENS
Info: LANGEVIN PISTON PRESSURE CONTROL ACTIVE
Info:        TARGET PRESSURE IS 1.01325 BAR
Info:     OSCILLATION PERIOD IS 50 FS
Info:             DECAY TIME IS 25 FS
Info:     PISTON TEMPERATURE IS 300 K
Info:       PRESSURE CONTROL IS GROUP-BASED
Info:    INITIAL STRAIN RATE IS 0 0 0
Info:       CELL FLUCTUATION IS ISOTROPIC
Info: PARTICLE MESH EWALD (PME) ACTIVE
Info: PME TOLERANCE               1e-06
Info: PME EWALD COEFFICIENT       0.348832
Info: PME INTERPOLATION ORDER     4
Info: PME GRID DIMENSIONS         40 36 32
Info: PME MAXIMUM GRID SPACING    1
Info: FULL ELECTROSTATIC EVALUATION FREQUENCY      2
Info: USING VERLET I (r-RESPA) MTS SCHEME.
Info: C1 SPLITTING OF LONG RANGE ELECTROSTATICS
Info: PLACING ATOMS IN PATCHES BY HYDROGEN GROUPS
Info: RIGID BONDS TO HYDROGEN : ALL
Info:         ERROR TOLERANCE : 1e-08
Info:          MAX ITERATIONS : 100
Info: RIGID WATER USING SETTLE ALGORITHM
Info: RANDOM NUMBER SEED     1743729086
Info: USE HYDROGEN BONDS?    NO
Info: Using AMBER format force field!
Info: AMBER PARM FILE        mobley_5520946.prmtop
Info: COORDINATE PDB         mobley_5520946.pdb
Info: Exclusions will be read from PARM file!
Info: SCNB (VDW SCALING)     2
Info: USING ARITHMETIC MEAN TO COMBINE L-J SIGMA PARAMETERS
Info: BINARY COORDINATES     mobley_5520946_min.coor
Info: SUMMARY OF PARAMETERS:
Info: 6 BONDS
Info: 4 ANGLES
Info:   4 HARMONIC
Info:   0 COSINE-BASED
Info: 3 DIHEDRAL
Info: 0 IMPROPER
Info: 0 CROSSTERM
Info: 0 VDW
Info: 21 VDW_PAIRS
Info: 0 NBTHOLE_PAIRS
Info: STRUCTURE SUMMARY:
Info: 2950 ATOMS
Info: 2950 BONDS
Info: 19 ANGLES
Info: 32 DIHEDRALS
Info: 0 IMPROPERS
Info: 0 CROSSTERMS
Info: 2992 EXCLUSIONS
Info: 13 FIXED ATOMS
Info: 2943 RIGID BONDS
Info: 6 RIGID BONDS BETWEEN FIXED ATOMS
Info: 5874 DEGREES OF FREEDOM
Info: 986 HYDROGEN GROUPS
Info: 3 ATOMS IN LARGEST HYDROGEN GROUP
Info: 986 MIGRATION GROUPS
Info: 3 ATOMS IN LARGEST MIGRATION GROUP
Info: 7 HYDROGEN GROUPS WITH ALL ATOMS FIXED
Info: TOTAL MASS = 17747.8 amu
Info: TOTAL CHARGE = -2.04891e-08 e
Info: MASS DENSITY = 0.69075 g/cm^3
Info: ATOM DENSITY = 0.0691414 atoms/A^3
Info: ADDED 0 IMPLICIT EXCLUSIONS
Info: NONBONDED TABLE R-SQUARED SPACING: 0.0625
Info: NONBONDED TABLE SIZE: 705 POINTS
Info: REMOVING COM VELOCITY -0.111365 -0.0913927 0.265695
TCL: Running for 100000 steps
ETITLE: TS BOND ANGLE DIHED IMPRP ELECT VDW BOUNDARY MISC KINETIC TOTAL TEMP POTENTIAL TOTAL3 TEMPAVG PRESSURE GPRESSURE VOLUME PRESSAVG GPRESSAVG
ENERGY: 0 0.0000 0.0000 0.0000 0.0000 -13688.0484 2366.4021 0.0000 0.0000 1748.3179 -9573.3284 299.5552 -11321.6463 -9572.9967 299.5552 109.0075 146.0304 42666.1686 109.0075 146.0304
ENERGY: 100000 0.0000 0.0000 0.0000 0.0000 -14225.6778 2509.3894 0.0000 0.0000 172.9703 -11543.3181 29.6366 -11716.2884 -11543.0735 30.8868 346.4643 388.0378 29096.6748 3.3677 3.3529
TCL: Running 100000 steps at 60 kelvin.
TCL: Setting parameter langevinTemp to 60
TCL: Running for 100000 steps
ETITLE: TS BOND ANGLE DIHED IMPRP ELECT VDW BOUNDARY MISC KINETIC TOTAL TEMP POTENTIAL TOTAL3 TEMPAVG PRESSURE GPRESSURE VOLUME PRESSAVG GPRESSAVG
ENERGY: 100000 0.0000 0.0000 0.0000 0.0000 -14225.6778 2509.3894 0.0000 0.0000 172.8855 -11543.4030 29.6220 -11716.2884 -11543.1315 29.6220 334.3413 387.9783 29096.6748 334.3413 387.9783
ENERGY: 200000 0.0000 0.0000 0.0000 0.0000 -14119.6412 2399.2864 0.0000 0.0000 358.1075 -11362.2473 61.3578 -11720.3548 -11361.0479 59.8921 -271.8993 -237.2660 28546.2221 3.6380 3.6724
TCL: Running 100000 steps at 90 kelvin.
TCL: Setting parameter langevinTemp to 90
TCL: Running for 100000 steps
ETITLE: TS BOND ANGLE DIHED IMPRP ELECT VDW BOUNDARY MISC KINETIC TOTAL TEMP POTENTIAL TOTAL3 TEMPAVG PRESSURE GPRESSURE VOLUME PRESSAVG GPRESSAVG
ENERGY: 200000 0.0000 0.0000 0.0000 0.0000 -14119.6412 2399.2864 0.0000 0.0000 357.9355 -11362.4194 61.3283 -11720.3548 -11361.7139 61.3283 -286.6077 -236.7088 28546.2221 -286.6077 -236.7088
ENERGY: 300000 0.0000 0.0000 0.0000 0.0000 -13913.8508 2304.4392 0.0000 0.0000 515.8832 -11093.5285 88.3910 -11609.4116 -11092.2170 89.9799 -653.8822 -621.9309 28535.1033 4.0500 4.1093
TCL: Running 100000 steps at 120 kelvin.
TCL: Setting parameter langevinTemp to 120
TCL: Running for 100000 steps
ETITLE: TS BOND ANGLE DIHED IMPRP ELECT VDW BOUNDARY MISC KINETIC TOTAL TEMP POTENTIAL TOTAL3 TEMPAVG PRESSURE GPRESSURE VOLUME PRESSAVG GPRESSAVG
ENERGY: 300000 0.0000 0.0000 0.0000 0.0000 -13913.8508 2304.4392 0.0000 0.0000 515.6200 -11093.7917 88.3459 -11609.4116 -11092.6224 88.3459 -668.2740 -621.8491 28535.1033 -668.2740 -621.8491
ENERGY: 400000 0.0000 0.0000 0.0000 0.0000 -13667.5236 2212.6958 0.0000 0.0000 683.6460 -10771.1818 117.1353 -11454.8278 -10768.7860 119.8144 -916.7564 -849.2984 28759.5492 3.5013 3.5812
TCL: Running 100000 steps at 150 kelvin.
TCL: Setting parameter langevinTemp to 150
TCL: Running for 100000 steps
ETITLE: TS BOND ANGLE DIHED IMPRP ELECT VDW BOUNDARY MISC KINETIC TOTAL TEMP POTENTIAL TOTAL3 TEMPAVG PRESSURE GPRESSURE VOLUME PRESSAVG GPRESSAVG
ENERGY: 400000 0.0000 0.0000 0.0000 0.0000 -13667.5236 2212.6958 0.0000 0.0000 683.3096 -10771.5182 117.0776 -11454.8278 -10770.2140 117.0776 -895.2579 -848.5465 28759.5492 -895.2579 -848.5465
ENERGY: 500000 0.0000 0.0000 0.0000 0.0000 -13517.5773 2241.9048 0.0000 0.0000 912.4033 -10363.2691 156.3303 -11275.6725 -10362.1373 149.9993 260.4428 284.6683 28577.2501 3.1403 3.2587
TCL: Running 100000 steps at 180 kelvin.
TCL: Setting parameter langevinTemp to 180
TCL: Running for 100000 steps
ETITLE: TS BOND ANGLE DIHED IMPRP ELECT VDW BOUNDARY MISC KINETIC TOTAL TEMP POTENTIAL TOTAL3 TEMPAVG PRESSURE GPRESSURE VOLUME PRESSAVG GPRESSAVG
ENERGY: 500000 0.0000 0.0000 0.0000 0.0000 -13517.5773 2241.9048 0.0000 0.0000 911.9692 -10363.7032 156.2560 -11275.6725 -10361.5867 156.2560 220.3281 284.0023 28577.2501 220.3281 284.0023
ENERGY: 600000 0.0000 0.0000 0.0000 0.0000 -13193.9199 2201.2103 0.0000 0.0000 1027.5872 -9965.1224 176.0658 -10992.7096 -9964.0754 180.1328 714.8388 755.1409 28777.2469 3.6998 3.6781
TCL: Running 100000 steps at 210 kelvin.
TCL: Setting parameter langevinTemp to 210
TCL: Running for 100000 steps
ETITLE: TS BOND ANGLE DIHED IMPRP ELECT VDW BOUNDARY MISC KINETIC TOTAL TEMP POTENTIAL TOTAL3 TEMPAVG PRESSURE GPRESSURE VOLUME PRESSAVG GPRESSAVG
ENERGY: 600000 0.0000 0.0000 0.0000 0.0000 -13193.9199 2201.2103 0.0000 0.0000 1027.0493 -9965.6603 175.9737 -10992.7096 -9964.0194 175.9737 696.5601 753.6736 28777.2469 696.5601 753.6736
ENERGY: 700000 0.0000 0.0000 0.0000 0.0000 -12335.5093 1782.5899 0.0000 0.0000 1225.8218 -9327.0976 210.0312 -10552.9194 -9324.7238 210.0230 -1081.5284 -995.0343 28859.8463 3.2033 3.0107
TCL: Running 100000 steps at 240 kelvin.
TCL: Setting parameter langevinTemp to 240
TCL: Running for 100000 steps
ETITLE: TS BOND ANGLE DIHED IMPRP ELECT VDW BOUNDARY MISC KINETIC TOTAL TEMP POTENTIAL TOTAL3 TEMPAVG PRESSURE GPRESSURE VOLUME PRESSAVG GPRESSAVG
ENERGY: 700000 0.0000 0.0000 0.0000 0.0000 -12335.5093 1782.5899 0.0000 0.0000 1225.2155 -9327.7039 209.9273 -10552.9194 -9325.1044 209.9273 -1076.5268 -995.2433 28859.8463 -1076.5268 -995.2433
ENERGY: 800000 0.0000 0.0000 0.0000 0.0000 -11769.0739 1707.0183 0.0000 0.0000 1377.5276 -8684.5280 236.0243 -10062.0557 -8683.4763 239.7411 204.0380 277.9332 29009.8975 3.9230 3.7540
TCL: Running 100000 steps at 270 kelvin.
TCL: Setting parameter langevinTemp to 270
TCL: Running for 100000 steps
ETITLE: TS BOND ANGLE DIHED IMPRP ELECT VDW BOUNDARY MISC KINETIC TOTAL TEMP POTENTIAL TOTAL3 TEMPAVG PRESSURE GPRESSURE VOLUME PRESSAVG GPRESSAVG
ENERGY: 800000 0.0000 0.0000 0.0000 0.0000 -11769.0739 1707.0183 0.0000 0.0000 1376.8349 -8685.2208 235.9056 -10062.0557 -8682.5152 235.9056 195.5156 273.9628 29009.8975 195.5156 273.9628
ENERGY: 900000 0.0000 0.0000 0.0000 0.0000 -11249.9052 1581.4894 0.0000 0.0000 1587.1105 -8081.3052 271.9341 -9668.4158 -8079.7944 269.5763 185.1920 346.2171 29671.8548 3.8987 3.8629
TCL: Running 1000000 steps at 300 kelvin.
TCL: Setting parameter langevinTemp to 300
TCL: Running for 1000000 steps
ETITLE: TS BOND ANGLE DIHED IMPRP ELECT VDW BOUNDARY MISC KINETIC TOTAL TEMP POTENTIAL TOTAL3 TEMPAVG PRESSURE GPRESSURE VOLUME PRESSAVG GPRESSAVG
ENERGY: 900000 0.0000 0.0000 0.0000 0.0000 -11249.9052 1581.4894 0.0000 0.0000 1586.2753 -8082.1405 271.7910 -9668.4158 -8079.9161 271.7910 261.9497 345.9731 29671.8548 261.9497 345.9731
ENERGY: 1100000 0.0000 0.0000 0.0000 0.0000 -10596.0386 1338.5718 0.0000 0.0000 1767.9008 -7489.5660 302.9105 -9257.4668 -7485.7854 300.9262 -973.5226 -876.3175 30753.9553 2.4195 2.4224
ENERGY: 1300000 0.0000 0.0000 0.0000 0.0000 -10773.1445 1446.0554 0.0000 0.0000 1742.4981 -7584.5910 298.5580 -9327.0891 -7581.0005 299.6711 -95.9977 3.5583 30269.2679 3.0927 3.0609
ENERGY: 1500000 0.0000 0.0000 0.0000 0.0000 -10737.0197 1419.4003 0.0000 0.0000 1738.6603 -7578.9590 297.9005 -9317.6194 -7577.5685 300.5403 -602.7817 -483.1567 30798.6714 2.8137 2.8175
ENERGY: 1700000 0.0000 0.0000 0.0000 0.0000 -10584.4617 1321.1616 0.0000 0.0000 1752.5073 -7510.7927 300.2730 -9263.3001 -7505.1908 300.0929 -744.5798 -638.7984 30296.8845 3.1727 3.1361
ENERGY: 1900000 0.0000 0.0000 0.0000 0.0000 -10718.3358 1449.6377 0.0000 0.0000 1730.7863 -7537.9118 296.5513 -9268.6981 -7533.5876 299.7913 214.9785 281.0648 30326.5873 3.3974 3.3326
TCL: Exiting due to exit command.
