Info: SIMULATION PARAMETERS:
Info: TIMESTEP               2
Info: NUMBER OF STEPS        0
Info: STEPS PER CYCLE        10
Info: PERIODIC CELL BASIS 1  36.592 0 0
Info: PERIODIC CELL BASIS 2  0 35.779 0
Info: PERIODIC CELL BASIS 3  0 0 34.229
Info: PERIODIC CELL CENTER   0 0 0
Info: WRAPPING WATERS AROUND PERIODIC BOUNDARIES ON OUTPUT.
Info: WRAPPING ALL CLUSTERS AROUND PERIODIC BOUNDARIES ON OUTPUT.
Info: FIRST LDB TIMESTEP     50
Info: LAST LDB TIMESTEP     -1
Info: HOM BACKGROUND SCALING 1
Info: PME BACKGROUND SCALING 1
Info: MIN ATOMS PER PATCH    40
Info: EMPTY PATCH LOAD       40 ATOMS
Info: INITIAL TEMPERATURE    300
Info: CENTER OF MASS MOVING INITIALLY? NO
Info: DIELECTRIC             1
Info: EXCLUDE                SCALED ONE-FOUR
Info: 1-4 ELECTROSTATICS SCALED BY 0.833333
Info: MODIFIED 1-4 VDW PARAMETERS WILL BE USED
Info: DCD FILENAME           mobley_1244778_equil.dcd
Info: DCD FREQUENCY          100000
Info: DCD FIRST STEP         100000
Info: DCD FILE WILL CONTAIN UNIT CELL DATA
Info: XST FILENAME           mobley_1244778_equil.xst
Info: XST FREQUENCY          100000
Info: NO VELOCITY DCD OUTPUT
Info: NO FORCE DCD OUTPUT
Info: OUTPUT FILENAME        mobley_1244778_equil
Info: BINARY OUTPUT FILES WILL BE USED
Info: RESTART FILENAME       mobley_1244778_equil.restart
Info: RESTART FREQUENCY      100000
Info: BINARY RESTART FILES WILL BE USED
Info: CUTOFF                 9
Info: PAIRLIST DISTANCE      11
Info: PAIRLIST SHRINK RATE   0.01
Info: PAIRLIST GROW RATE     0.01
Info: PAIRLIST TRIGGER       0.3
Info: PAIRLISTS PER CYCLE    2
Info: PAIRLISTS ENABLED
Info: MARGIN                 8
Info: HYDROGEN GROUP CUTOFF  2.5
Info: PATCH DIMENSION        21.5
Info: ENERGY OUTPUT STEPS    100000
Info: ENERGY EVALUATION STEPS    100000
Info: OUTPUT ENERGY PRECISION 4
Info: CROSSTERM ENERGY INCLUDED IN DIHEDRAL
Info: TIMING OUTPUT STEPS    1000000
Info: PRESSURE OUTPUT STEPS  100000
Info: FIXED ATOMS ACTIVE
Info: LANGEVIN DYNAMICS ACTIVE
Info: LANGEVIN TEMPERATURE   30
Info: LANGEVIN USING BBK INTEGRATOR
Info: LANGEVIN DAMPING COEFFICIENT IS 1 INVERSE PS
Info: LANGEVIN DYNAMICS APPLIED TO HYDROGENS
Info: LANGEVIN PISTON PRESSURE CONTROL ACTIVE
Info:        TARGET PRESSURE IS 1.01325 BAR
Info:     OSCILLATION PERIOD IS 50 FS
Info:             DECAY TIME IS 25 FS
Info:     PISTON TEMPERATURE IS 300 K
Info:       PRESSURE CONTROL IS GROUP-BASED
Info:    INITIAL STRAIN RATE IS 0 0 0
Info:       CELL FLUCTUATION IS ISOTROPIC
Info: PARTICLE MESH EWALD (PME) ACTIVE
Info: PME TOLERANCE               1e-06
Info: PME EWALD COEFFICIENT       0.348832
Info: PME INTERPOLATION ORDER     4
Info: PME GRID DIMENSIONS         40 36 36
Info: PME MAXIMUM GRID SPACING    1
Info: FULL ELECTROSTATIC EVALUATION FREQUENCY      2
Info: USING VERLET I (r-RESPA) MTS SCHEME.
Info: C1 SPLITTING OF LONG RANGE ELECTROSTATICS
Info: PLACING ATOMS IN PATCHES BY HYDROGEN GROUPS
Info: RIGID BONDS TO HYDROGEN : ALL
Info:         ERROR TOLERANCE : 1e-08
Info:          MAX ITERATIONS : 100
Info: RIGID WATER USING SETTLE ALGORITHM
Info: RANDOM NUMBER SEED     1744678763
Info: USE HYDROGEN BONDS?    NO
Info: Using AMBER format force field!
Info: AMBER PARM FILE        mobley_1244778.prmtop
Info: COORDINATE PDB         mobley_1244778.pdb
Info: Exclusions will be read from PARM file!
Info: SCNB (VDW SCALING)     2
Info: USING ARITHMETIC MEAN TO COMBINE L-J SIGMA PARAMETERS
Info: BINARY COORDINATES     mobley_1244778_min.coor
Info: SUMMARY OF PARAMETERS:
Info: 7 BONDS
Info: 7 ANGLES
Info:   7 HARMONIC
Info:   0 COSINE-BASED
Info: 9 DIHEDRAL
Info: 0 IMPROPER
Info: 0 CROSSTERM
Info: 0 VDW
Info: 21 VDW_PAIRS
Info: 0 NBTHOLE_PAIRS
Info: STRUCTURE SUMMARY:
Info: 2959 ATOMS
Info: 2959 BONDS
Info: 43 ANGLES
Info: 86 DIHEDRALS
Info: 0 IMPROPERS
Info: 0 CROSSTERMS
Info: 3068 EXCLUSIONS
Info: 22 FIXED ATOMS
Info: 2951 RIGID BONDS
Info: 14 RIGID BONDS BETWEEN FIXED ATOMS
Info: 5874 DEGREES OF FREEDOM
Info: 987 HYDROGEN GROUPS
Info: 3 ATOMS IN LARGEST HYDROGEN GROUP
Info: 987 MIGRATION GROUPS
Info: 3 ATOMS IN LARGEST MIGRATION GROUP
Info: 8 HYDROGEN GROUPS WITH ALL ATOMS FIXED
Info: TOTAL MASS = 17751.8 amu
Info: TOTAL CHARGE = -0.000199964 e
Info: MASS DENSITY = 0.657801 g/cm^3
Info: ATOM DENSITY = 0.0660293 atoms/A^3
Info: ADDED 0 IMPLICIT EXCLUSIONS
Info: NONBONDED TABLE R-SQUARED SPACING: 0.0625
Info: NONBONDED TABLE SIZE: 705 POINTS
Info: REMOVING COM VELOCITY 0.0502536 -0.0446222 -0.111325
TCL: Running for 100000 steps
ETITLE: TS BOND ANGLE DIHED IMPRP ELECT VDW BOUNDARY MISC KINETIC TOTAL TEMP POTENTIAL TOTAL3 TEMPAVG PRESSURE GPRESSURE VOLUME PRESSAVG GPRESSAVG
ENERGY: 0 0.0000 0.0000 0.0000 0.0000 -13688.5129 2416.8432 0.0000 0.0000 1719.7833 -9551.8864 294.6661 -11271.6697 -9551.5585 294.6661 423.2833 459.8931 44813.4683 423.2833 459.8931
ENERGY: 100000 0.0000 0.0000 0.0000 0.0000 -14251.9317 2502.4553 0.0000 0.0000 167.6788 -11581.7977 28.7299 -11749.4764 -11581.6014 30.8857 168.9618 234.6496 29221.6162 3.9120 3.7815
TCL: Running 100000 steps at 60 kelvin.
TCL: Setting parameter langevinTemp to 60
TCL: Running for 100000 steps
ETITLE: TS BOND ANGLE DIHED IMPRP ELECT VDW BOUNDARY MISC KINETIC TOTAL TEMP POTENTIAL TOTAL3 TEMPAVG PRESSURE GPRESSURE VOLUME PRESSAVG GPRESSAVG
ENERGY: 100000 0.0000 0.0000 0.0000 0.0000 -14251.9317 2502.4553 0.0000 0.0000 167.5912 -11581.8852 28.7149 -11749.4764 -11581.5005 28.7149 189.6195 234.7248 29221.6162 189.6195 234.7248
ENERGY: 200000 0.0000 0.0000 0.0000 0.0000 -14140.1307 2416.5522 0.0000 0.0000 354.5054 -11369.0731 60.7406 -11723.5785 -11367.9234 59.9727 -99.3175 -59.3097 28782.5810 4.0278 4.1326
TCL: Running 100000 steps at 90 kelvin.
TCL: Setting parameter langevinTemp to 90
TCL: Running for 100000 steps
ETITLE: TS BOND ANGLE DIHED IMPRP ELECT VDW BOUNDARY MISC KINETIC TOTAL TEMP POTENTIAL TOTAL3 TEMPAVG PRESSURE GPRESSURE VOLUME PRESSAVG GPRESSAVG
ENERGY: 200000 0.0000 0.0000 0.0000 0.0000 -14140.1307 2416.5522 0.0000 0.0000 354.3319 -11369.2467 60.7109 -11723.5785 -11368.5525 60.7109 -109.5549 -58.8146 28782.5810 -109.5549 -58.8146
ENERGY: 300000 0.0000 0.0000 0.0000 0.0000 -14047.7843 2449.2001 0.0000 0.0000 541.7945 -11056.7897 92.8306 -11598.5842 -11055.7312 89.9158 716.5445 793.9366 28413.2688 3.6064 3.5268
TCL: Running 100000 steps at 120 kelvin.
TCL: Setting parameter langevinTemp to 120
TCL: Running for 100000 steps
ETITLE: TS BOND ANGLE DIHED IMPRP ELECT VDW BOUNDARY MISC KINETIC TOTAL TEMP POTENTIAL TOTAL3 TEMPAVG PRESSURE GPRESSURE VOLUME PRESSAVG GPRESSAVG
ENERGY: 300000 0.0000 0.0000 0.0000 0.0000 -14047.7843 2449.2001 0.0000 0.0000 541.5189 -11057.0653 92.7834 -11598.5842 -11056.1691 92.7834 728.3150 794.4924 28413.2688 728.3150 794.4924
ENERGY: 400000 0.0000 0.0000 0.0000 0.0000 -13735.6014 2246.7898 0.0000 0.0000 686.1454 -10802.6662 117.5635 -11488.8116 -10800.9349 119.6280 -716.0739 -593.3681 28826.8556 2.6202 2.4911
TCL: Running 100000 steps at 150 kelvin.
TCL: Setting parameter langevinTemp to 150
TCL: Running for 100000 steps
ETITLE: TS BOND ANGLE DIHED IMPRP ELECT VDW BOUNDARY MISC KINETIC TOTAL TEMP POTENTIAL TOTAL3 TEMPAVG PRESSURE GPRESSURE VOLUME PRESSAVG GPRESSAVG
ENERGY: 400000 0.0000 0.0000 0.0000 0.0000 -13735.6014 2246.7898 0.0000 0.0000 685.8016 -10803.0100 117.5046 -11488.8116 -10801.7275 117.5046 -661.4640 -593.3464 28826.8556 -661.4640 -593.3464
ENERGY: 500000 0.0000 0.0000 0.0000 0.0000 -13573.5171 2215.0062 0.0000 0.0000 857.7236 -10500.7873 146.9616 -11358.5109 -10498.6147 149.9690 -501.0232 -433.3261 28910.8763 4.6721 4.6992
TCL: Running 100000 steps at 180 kelvin.
TCL: Setting parameter langevinTemp to 180
TCL: Running for 100000 steps
ETITLE: TS BOND ANGLE DIHED IMPRP ELECT VDW BOUNDARY MISC KINETIC TOTAL TEMP POTENTIAL TOTAL3 TEMPAVG PRESSURE GPRESSURE VOLUME PRESSAVG GPRESSAVG
ENERGY: 500000 0.0000 0.0000 0.0000 0.0000 -13573.5171 2215.0062 0.0000 0.0000 857.2959 -10501.2151 146.8883 -11358.5109 -10499.3776 146.8883 -492.4752 -432.5826 28910.8763 -492.4752 -432.5826
ENERGY: 600000 0.0000 0.0000 0.0000 0.0000 -13020.7496 2037.3897 0.0000 0.0000 1039.5603 -9943.7996 178.1173 -10983.3599 -9941.4218 179.9166 -590.8514 -535.2506 29211.1905 3.1622 2.9906
TCL: Running 100000 steps at 210 kelvin.
TCL: Setting parameter langevinTemp to 210
TCL: Running for 100000 steps
ETITLE: TS BOND ANGLE DIHED IMPRP ELECT VDW BOUNDARY MISC KINETIC TOTAL TEMP POTENTIAL TOTAL3 TEMPAVG PRESSURE GPRESSURE VOLUME PRESSAVG GPRESSAVG
ENERGY: 600000 0.0000 0.0000 0.0000 0.0000 -13020.7496 2037.3897 0.0000 0.0000 1039.0573 -9944.3026 178.0311 -10983.3599 -9942.4151 178.0311 -593.7618 -535.8187 29211.1905 -593.7618 -535.8187
ENERGY: 700000 0.0000 0.0000 0.0000 0.0000 -12403.9586 1873.1752 0.0000 0.0000 1220.8446 -9309.9387 209.1784 -10530.7833 -9307.1947 209.6967 -220.2402 -170.2643 29116.2553 2.9406 3.0200
TCL: Running 100000 steps at 240 kelvin.
TCL: Setting parameter langevinTemp to 240
TCL: Running for 100000 steps
ETITLE: TS BOND ANGLE DIHED IMPRP ELECT VDW BOUNDARY MISC KINETIC TOTAL TEMP POTENTIAL TOTAL3 TEMPAVG PRESSURE GPRESSURE VOLUME PRESSAVG GPRESSAVG
ENERGY: 700000 0.0000 0.0000 0.0000 0.0000 -12403.9586 1873.1752 0.0000 0.0000 1220.2474 -9310.5359 209.0761 -10530.7833 -9308.6045 209.0761 -234.0287 -169.3106 29116.2553 -234.0287 -169.3106
ENERGY: 800000 0.0000 0.0000 0.0000 0.0000 -11940.7214 1798.5169 0.0000 0.0000 1339.5208 -8802.6836 229.5123 -10142.2045 -8800.6409 239.7326 486.9211 603.8060 29159.6117 3.8066 3.5998
TCL: Running 100000 steps at 270 kelvin.
TCL: Setting parameter langevinTemp to 270
TCL: Running for 100000 steps
ETITLE: TS BOND ANGLE DIHED IMPRP ELECT VDW BOUNDARY MISC KINETIC TOTAL TEMP POTENTIAL TOTAL3 TEMPAVG PRESSURE GPRESSURE VOLUME PRESSAVG GPRESSAVG
ENERGY: 800000 0.0000 0.0000 0.0000 0.0000 -11940.7214 1798.5169 0.0000 0.0000 1338.8209 -8803.3836 229.3923 -10142.2045 -8800.9156 229.3923 514.9927 602.6948 29159.6117 514.9927 602.6948
ENERGY: 900000 0.0000 0.0000 0.0000 0.0000 -11332.7172 1580.0327 0.0000 0.0000 1559.0574 -8193.6271 267.1275 -9752.6845 -8192.9503 270.2878 49.0295 126.7556 29477.8154 3.9453 4.0900
TCL: Running 1000000 steps at 300 kelvin.
TCL: Setting parameter langevinTemp to 300
TCL: Running for 1000000 steps
ETITLE: TS BOND ANGLE DIHED IMPRP ELECT VDW BOUNDARY MISC KINETIC TOTAL TEMP POTENTIAL TOTAL3 TEMPAVG PRESSURE GPRESSURE VOLUME PRESSAVG GPRESSAVG
ENERGY: 900000 0.0000 0.0000 0.0000 0.0000 -11332.7172 1580.0327 0.0000 0.0000 1558.2488 -8194.4357 266.9889 -9752.6845 -8192.6076 266.9889 46.0184 126.8626 29477.8154 46.0184 126.8626
ENERGY: 1100000 0.0000 0.0000 0.0000 0.0000 -10770.7586 1480.1562 0.0000 0.0000 1760.2382 -7530.3643 301.5976 -9290.6025 -7529.3637 300.3373 401.0144 487.6617 30533.1114 2.9476 2.8476
ENERGY: 1300000 0.0000 0.0000 0.0000 0.0000 -10779.6082 1394.9373 0.0000 0.0000 1831.3648 -7553.3060 313.7844 -9384.6709 -7548.5695 299.5838 -450.3556 -330.3815 30138.4834 5.4955 5.3959
ENERGY: 1500000 0.0000 0.0000 0.0000 0.0000 -10648.7070 1387.4546 0.0000 0.0000 1751.0718 -7510.1806 300.0270 -9261.2524 -7508.8243 300.0127 -280.1131 -188.8912 30543.9655 2.8078 2.6232
ENERGY: 1700000 0.0000 0.0000 0.0000 0.0000 -10805.3085 1490.3074 0.0000 0.0000 1726.4285 -7588.5726 295.8047 -9315.0010 -7585.7518 300.0689 444.9640 526.9326 30183.8243 2.7778 2.6283
ENERGY: 1900000 0.0000 0.0000 0.0000 0.0000 -10685.7266 1406.9039 0.0000 0.0000 1717.4947 -7561.3279 294.2740 -9278.8226 -7558.4399 300.7930 -349.3868 -270.4572 30690.1695 2.6271 2.5886
TCL: Exiting due to exit command.
