Info: SIMULATION PARAMETERS:
Info: TIMESTEP               2
Info: NUMBER OF STEPS        0
Info: STEPS PER CYCLE        10
Info: PERIODIC CELL BASIS 1  36.592 0 0
Info: PERIODIC CELL BASIS 2  0 34.26 0
Info: PERIODIC CELL BASIS 3  0 0 34.68
Info: PERIODIC CELL CENTER   0 0 0
Info: WRAPPING WATERS AROUND PERIODIC BOUNDARIES ON OUTPUT.
Info: WRAPPING ALL CLUSTERS AROUND PERIODIC BOUNDARIES ON OUTPUT.
Info: FIRST LDB TIMESTEP     50
Info: LAST LDB TIMESTEP     -1
Info: HOM BACKGROUND SCALING 1
Info: PME BACKGROUND SCALING 1
Info: MIN ATOMS PER PATCH    40
Info: EMPTY PATCH LOAD       40 ATOMS
Info: INITIAL TEMPERATURE    300
Info: CENTER OF MASS MOVING INITIALLY? NO
Info: DIELECTRIC             1
Info: EXCLUDE                SCALED ONE-FOUR
Info: 1-4 ELECTROSTATICS SCALED BY 0.833333
Info: MODIFIED 1-4 VDW PARAMETERS WILL BE USED
Info: DCD FILENAME           mobley_1662128_equil.dcd
Info: DCD FREQUENCY          100000
Info: DCD FIRST STEP         100000
Info: DCD FILE WILL CONTAIN UNIT CELL DATA
Info: XST FILENAME           mobley_1662128_equil.xst
Info: XST FREQUENCY          100000
Info: NO VELOCITY DCD OUTPUT
Info: NO FORCE DCD OUTPUT
Info: OUTPUT FILENAME        mobley_1662128_equil
Info: BINARY OUTPUT FILES WILL BE USED
Info: RESTART FILENAME       mobley_1662128_equil.restart
Info: RESTART FREQUENCY      100000
Info: BINARY RESTART FILES WILL BE USED
Info: CUTOFF                 9
Info: PAIRLIST DISTANCE      11
Info: PAIRLIST SHRINK RATE   0.01
Info: PAIRLIST GROW RATE     0.01
Info: PAIRLIST TRIGGER       0.3
Info: PAIRLISTS PER CYCLE    2
Info: PAIRLISTS ENABLED
Info: MARGIN                 8
Info: HYDROGEN GROUP CUTOFF  2.5
Info: PATCH DIMENSION        21.5
Info: ENERGY OUTPUT STEPS    100000
Info: ENERGY EVALUATION STEPS    100000
Info: OUTPUT ENERGY PRECISION 4
Info: CROSSTERM ENERGY INCLUDED IN DIHEDRAL
Info: TIMING OUTPUT STEPS    1000000
Info: PRESSURE OUTPUT STEPS  100000
Info: FIXED ATOMS ACTIVE
Info: LANGEVIN DYNAMICS ACTIVE
Info: LANGEVIN TEMPERATURE   30
Info: LANGEVIN USING BBK INTEGRATOR
Info: LANGEVIN DAMPING COEFFICIENT IS 1 INVERSE PS
Info: LANGEVIN DYNAMICS APPLIED TO HYDROGENS
Info: LANGEVIN PISTON PRESSURE CONTROL ACTIVE
Info:        TARGET PRESSURE IS 1.01325 BAR
Info:     OSCILLATION PERIOD IS 50 FS
Info:             DECAY TIME IS 25 FS
Info:     PISTON TEMPERATURE IS 300 K
Info:       PRESSURE CONTROL IS GROUP-BASED
Info:    INITIAL STRAIN RATE IS 0 0 0
Info:       CELL FLUCTUATION IS ISOTROPIC
Info: PARTICLE MESH EWALD (PME) ACTIVE
Info: PME TOLERANCE               1e-06
Info: PME EWALD COEFFICIENT       0.348832
Info: PME INTERPOLATION ORDER     4
Info: PME GRID DIMENSIONS         40 36 36
Info: PME MAXIMUM GRID SPACING    1
Info: FULL ELECTROSTATIC EVALUATION FREQUENCY      2
Info: USING VERLET I (r-RESPA) MTS SCHEME.
Info: C1 SPLITTING OF LONG RANGE ELECTROSTATICS
Info: PLACING ATOMS IN PATCHES BY HYDROGEN GROUPS
Info: RIGID BONDS TO HYDROGEN : ALL
Info:         ERROR TOLERANCE : 1e-08
Info:          MAX ITERATIONS : 100
Info: RIGID WATER USING SETTLE ALGORITHM
Info: RANDOM NUMBER SEED     1743900926
Info: USE HYDROGEN BONDS?    NO
Info: Using AMBER format force field!
Info: AMBER PARM FILE        mobley_1662128.prmtop
Info: COORDINATE PDB         mobley_1662128.pdb
Info: Exclusions will be read from PARM file!
Info: SCNB (VDW SCALING)     2
Info: USING ARITHMETIC MEAN TO COMBINE L-J SIGMA PARAMETERS
Info: BINARY COORDINATES     mobley_1662128_min.coor
Info: SUMMARY OF PARAMETERS:
Info: 7 BONDS
Info: 8 ANGLES
Info: 7 DIHEDRAL
Info: 0 IMPROPER
Info: 0 CROSSTERM
Info: 0 VDW
Info: 21 VDW_PAIRS
Info: 0 NBTHOLE_PAIRS
Info: STRUCTURE SUMMARY:
Info: 2910 ATOMS
Info: 2909 BONDS
Info: 18 ANGLES
Info: 25 DIHEDRALS
Info: 0 IMPROPERS
Info: 0 CROSSTERMS
Info: 2946 EXCLUSIONS
Info: 12 FIXED ATOMS
Info: 2906 RIGID BONDS
Info: 8 RIGID BONDS BETWEEN FIXED ATOMS
Info: 5796 DEGREES OF FREEDOM
Info: 970 HYDROGEN GROUPS
Info: 4 ATOMS IN LARGEST HYDROGEN GROUP
Info: 970 MIGRATION GROUPS
Info: 4 ATOMS IN LARGEST MIGRATION GROUP
Info: 4 HYDROGEN GROUPS WITH ALL ATOMS FIXED
Info: TOTAL MASS = 17459.6 amu
Info: TOTAL CHARGE = 9.99942e-05 e
Info: MASS DENSITY = 0.666868 g/cm^3
Info: ATOM DENSITY = 0.066933 atoms/A^3
Info: ADDED 0 IMPLICIT EXCLUSIONS
Info: NONBONDED TABLE R-SQUARED SPACING: 0.0625
Info: NONBONDED TABLE SIZE: 705 POINTS
Info: REMOVING COM VELOCITY 0.0492472 -0.0277793 -0.0837222
TCL: Running for 100000 steps
ETITLE: TS BOND ANGLE DIHED IMPRP ELECT VDW BOUNDARY MISC KINETIC TOTAL TEMP POTENTIAL TOTAL3 TEMPAVG PRESSURE GPRESSURE VOLUME PRESSAVG GPRESSAVG
ENERGY: 0 0.0000 0.0000 0.0000 0.0000 -13433.6001 2373.5001 0.0000 0.0000 1746.2966 -9313.8034 303.2355 -11060.1000 -9313.4489 303.2355 460.7359 496.1441 43476.3018 460.7359 496.1441
ENERGY: 100000 0.0000 0.0000 0.0000 0.0000 -13983.9759 2468.6406 0.0000 0.0000 175.4496 -11339.8857 30.4659 -11515.3353 -11339.5752 30.9016 214.0399 257.2313 29149.2366 4.5051 4.5526
TCL: Running 100000 steps at 60 kelvin.
TCL: Setting parameter langevinTemp to 60
TCL: Running for 100000 steps
ETITLE: TS BOND ANGLE DIHED IMPRP ELECT VDW BOUNDARY MISC KINETIC TOTAL TEMP POTENTIAL TOTAL3 TEMPAVG PRESSURE GPRESSURE VOLUME PRESSAVG GPRESSAVG
ENERGY: 100000 0.0000 0.0000 0.0000 0.0000 -13983.9759 2468.6406 0.0000 0.0000 175.3662 -11339.9691 30.4514 -11515.3353 -11339.5724 30.4514 211.4610 257.1117 29149.2366 211.4610 257.1117
ENERGY: 200000 0.0000 0.0000 0.0000 0.0000 -13925.0241 2409.5124 0.0000 0.0000 352.0935 -11163.4182 61.1392 -11515.5117 -11162.2885 60.1026 -124.8473 -53.8029 28615.8572 3.0274 3.0921
TCL: Running 100000 steps at 90 kelvin.
TCL: Setting parameter langevinTemp to 90
TCL: Running for 100000 steps
ETITLE: TS BOND ANGLE DIHED IMPRP ELECT VDW BOUNDARY MISC KINETIC TOTAL TEMP POTENTIAL TOTAL3 TEMPAVG PRESSURE GPRESSURE VOLUME PRESSAVG GPRESSAVG
ENERGY: 200000 0.0000 0.0000 0.0000 0.0000 -13925.0241 2409.5124 0.0000 0.0000 351.9273 -11163.5843 61.1104 -11515.5117 -11162.7537 61.1104 -105.7077 -53.5702 28615.8572 -105.7077 -53.5702
ENERGY: 300000 0.0000 0.0000 0.0000 0.0000 -13858.9590 2428.2194 0.0000 0.0000 528.7490 -10901.9906 91.8146 -11430.7395 -10901.0887 89.8004 579.9108 646.6443 28120.4156 2.5670 2.6145
TCL: Running 100000 steps at 120 kelvin.
TCL: Setting parameter langevinTemp to 120
TCL: Running for 100000 steps
ETITLE: TS BOND ANGLE DIHED IMPRP ELECT VDW BOUNDARY MISC KINETIC TOTAL TEMP POTENTIAL TOTAL3 TEMPAVG PRESSURE GPRESSURE VOLUME PRESSAVG GPRESSAVG
ENERGY: 300000 0.0000 0.0000 0.0000 0.0000 -13858.9590 2428.2194 0.0000 0.0000 528.5011 -10902.2384 91.7715 -11430.7395 -10901.4298 91.7715 579.1998 646.9463 28120.4156 579.1998 646.9463
ENERGY: 400000 0.0000 0.0000 0.0000 0.0000 -13420.1050 2151.7463 0.0000 0.0000 674.9874 -10593.3713 117.2081 -11268.3587 -10591.5862 120.1262 -1335.8285 -1297.1089 28803.9145 4.8468 4.9136
TCL: Running 100000 steps at 150 kelvin.
TCL: Setting parameter langevinTemp to 150
TCL: Running for 100000 steps
ETITLE: TS BOND ANGLE DIHED IMPRP ELECT VDW BOUNDARY MISC KINETIC TOTAL TEMP POTENTIAL TOTAL3 TEMPAVG PRESSURE GPRESSURE VOLUME PRESSAVG GPRESSAVG
ENERGY: 400000 0.0000 0.0000 0.0000 0.0000 -13420.1050 2151.7463 0.0000 0.0000 674.6487 -10593.7100 117.1493 -11268.3587 -10592.2878 117.1493 -1362.6902 -1296.2595 28803.9145 -1362.6902 -1296.2595
ENERGY: 500000 0.0000 0.0000 0.0000 0.0000 -13451.4332 2316.2897 0.0000 0.0000 855.4955 -10279.6480 148.5524 -11135.1435 -10279.3375 149.8825 841.4906 876.3912 28311.3804 2.7373 2.4746
TCL: Running 100000 steps at 180 kelvin.
TCL: Setting parameter langevinTemp to 180
TCL: Running for 100000 steps
ETITLE: TS BOND ANGLE DIHED IMPRP ELECT VDW BOUNDARY MISC KINETIC TOTAL TEMP POTENTIAL TOTAL3 TEMPAVG PRESSURE GPRESSURE VOLUME PRESSAVG GPRESSAVG
ENERGY: 500000 0.0000 0.0000 0.0000 0.0000 -13451.4332 2316.2897 0.0000 0.0000 855.0764 -10280.0671 148.4796 -11135.1435 -10278.5890 148.4796 826.2953 874.8199 28311.3804 826.2953 874.8199
ENERGY: 600000 0.0000 0.0000 0.0000 0.0000 -12913.7534 2083.5516 0.0000 0.0000 1010.6989 -9819.5029 175.5027 -10830.2018 -9816.5729 179.7118 -175.8409 -95.8200 28614.4657 3.8993 3.8275
TCL: Running 100000 steps at 210 kelvin.
TCL: Setting parameter langevinTemp to 210
TCL: Running for 100000 steps
ETITLE: TS BOND ANGLE DIHED IMPRP ELECT VDW BOUNDARY MISC KINETIC TOTAL TEMP POTENTIAL TOTAL3 TEMPAVG PRESSURE GPRESSURE VOLUME PRESSAVG GPRESSAVG
ENERGY: 600000 0.0000 0.0000 0.0000 0.0000 -12913.7534 2083.5516 0.0000 0.0000 1010.1834 -9820.0184 175.4132 -10830.2018 -9818.1463 175.4132 -154.8676 -95.7209 28614.4657 -154.8676 -95.7209
ENERGY: 700000 0.0000 0.0000 0.0000 0.0000 -12276.3330 1854.7840 0.0000 0.0000 1207.0940 -9214.4550 209.6057 -10421.5491 -9211.3009 209.9863 -236.4240 -122.7414 28127.1674 3.3691 3.4242
TCL: Running 100000 steps at 240 kelvin.
TCL: Setting parameter langevinTemp to 240
TCL: Running for 100000 steps
ETITLE: TS BOND ANGLE DIHED IMPRP ELECT VDW BOUNDARY MISC KINETIC TOTAL TEMP POTENTIAL TOTAL3 TEMPAVG PRESSURE GPRESSURE VOLUME PRESSAVG GPRESSAVG
ENERGY: 700000 0.0000 0.0000 0.0000 0.0000 -12276.3330 1854.7840 0.0000 0.0000 1206.4838 -9215.0653 209.4997 -10421.5491 -9212.8639 209.4997 -201.0132 -121.8094 28127.1674 -201.0132 -121.8094
ENERGY: 800000 0.0000 0.0000 0.0000 0.0000 -11568.8475 1598.0755 0.0000 0.0000 1390.9516 -8579.8204 241.5316 -9970.7721 -8575.9599 240.4682 -847.5570 -770.9436 28732.8203 3.5778 3.5809
TCL: Running 100000 steps at 270 kelvin.
TCL: Setting parameter langevinTemp to 270
TCL: Running for 100000 steps
ETITLE: TS BOND ANGLE DIHED IMPRP ELECT VDW BOUNDARY MISC KINETIC TOTAL TEMP POTENTIAL TOTAL3 TEMPAVG PRESSURE GPRESSURE VOLUME PRESSAVG GPRESSAVG
ENERGY: 800000 0.0000 0.0000 0.0000 0.0000 -11568.8475 1598.0755 0.0000 0.0000 1390.2369 -8580.5352 241.4075 -9970.7721 -8578.1164 241.4075 -852.5525 -770.4386 28732.8203 -852.5525 -770.4386
ENERGY: 900000 0.0000 0.0000 0.0000 0.0000 -11151.0651 1626.3849 0.0000 0.0000 1531.6749 -7993.0053 265.9675 -9524.6802 -7991.8290 270.3497 708.2165 851.5911 29101.6293 1.8126 1.9383
TCL: Running 1000000 steps at 300 kelvin.
TCL: Setting parameter langevinTemp to 300
TCL: Running for 1000000 steps
ETITLE: TS BOND ANGLE DIHED IMPRP ELECT VDW BOUNDARY MISC KINETIC TOTAL TEMP POTENTIAL TOTAL3 TEMPAVG PRESSURE GPRESSURE VOLUME PRESSAVG GPRESSAVG
ENERGY: 900000 0.0000 0.0000 0.0000 0.0000 -11151.0651 1626.3849 0.0000 0.0000 1530.8610 -7993.8192 265.8262 -9524.6802 -7992.3627 265.8262 791.2763 851.6267 29101.6293 791.2763 851.6267
ENERGY: 1100000 0.0000 0.0000 0.0000 0.0000 -10607.3016 1448.6504 0.0000 0.0000 1709.1069 -7449.5443 296.7777 -9158.6512 -7446.3889 299.8478 -25.1427 64.8393 30233.6843 3.4023 3.4698
ENERGY: 1300000 0.0000 0.0000 0.0000 0.0000 -10511.5406 1366.8909 0.0000 0.0000 1725.9520 -7418.6976 299.7028 -9144.6496 -7410.8450 298.8181 -449.1082 -415.0032 30122.2252 4.8146 4.9546
ENERGY: 1500000 0.0000 0.0000 0.0000 0.0000 -10688.1150 1477.6275 0.0000 0.0000 1725.3075 -7485.1800 299.5908 -9210.4875 -7480.8859 300.1613 539.6841 576.0286 29574.9579 2.7608 2.8207
ENERGY: 1700000 0.0000 0.0000 0.0000 0.0000 -10403.4370 1326.2084 0.0000 0.0000 1682.4618 -7394.7667 292.1509 -9077.2285 -7392.7647 300.6817 -637.6136 -520.3595 30175.1778 3.9234 3.7037
ENERGY: 1900000 0.0000 0.0000 0.0000 0.0000 -10455.7176 1323.3990 0.0000 0.0000 1728.5863 -7403.7323 300.1602 -9132.3186 -7400.4699 299.4286 -668.9285 -537.6867 30018.4119 2.9105 2.8170
TCL: Exiting due to exit command.
