Info: SIMULATION PARAMETERS:
Info: TIMESTEP               2
Info: NUMBER OF STEPS        0
Info: STEPS PER CYCLE        10
Info: PERIODIC CELL BASIS 1  36.592 0 0
Info: PERIODIC CELL BASIS 2  0 35.411 0
Info: PERIODIC CELL BASIS 3  0 0 34.471
Info: PERIODIC CELL CENTER   0 0 0
Info: WRAPPING WATERS AROUND PERIODIC BOUNDARIES ON OUTPUT.
Info: WRAPPING ALL CLUSTERS AROUND PERIODIC BOUNDARIES ON OUTPUT.
Info: FIRST LDB TIMESTEP     50
Info: LAST LDB TIMESTEP     -1
Info: HOM BACKGROUND SCALING 1
Info: PME BACKGROUND SCALING 1
Info: MIN ATOMS PER PATCH    40
Info: EMPTY PATCH LOAD       40 ATOMS
Info: INITIAL TEMPERATURE    300
Info: CENTER OF MASS MOVING INITIALLY? NO
Info: DIELECTRIC             1
Info: EXCLUDE                SCALED ONE-FOUR
Info: 1-4 ELECTROSTATICS SCALED BY 0.833333
Info: MODIFIED 1-4 VDW PARAMETERS WILL BE USED
Info: DCD FILENAME           mobley_5056289_equil.dcd
Info: DCD FREQUENCY          100000
Info: DCD FIRST STEP         100000
Info: DCD FILE WILL CONTAIN UNIT CELL DATA
Info: XST FILENAME           mobley_5056289_equil.xst
Info: XST FREQUENCY          100000
Info: NO VELOCITY DCD OUTPUT
Info: NO FORCE DCD OUTPUT
Info: OUTPUT FILENAME        mobley_5056289_equil
Info: BINARY OUTPUT FILES WILL BE USED
Info: RESTART FILENAME       mobley_5056289_equil.restart
Info: RESTART FREQUENCY      100000
Info: BINARY RESTART FILES WILL BE USED
Info: CUTOFF                 9
Info: PAIRLIST DISTANCE      11
Info: PAIRLIST SHRINK RATE   0.01
Info: PAIRLIST GROW RATE     0.01
Info: PAIRLIST TRIGGER       0.3
Info: PAIRLISTS PER CYCLE    2
Info: PAIRLISTS ENABLED
Info: MARGIN                 8
Info: HYDROGEN GROUP CUTOFF  2.5
Info: PATCH DIMENSION        21.5
Info: ENERGY OUTPUT STEPS    100000
Info: ENERGY EVALUATION STEPS    100000
Info: OUTPUT ENERGY PRECISION 4
Info: CROSSTERM ENERGY INCLUDED IN DIHEDRAL
Info: TIMING OUTPUT STEPS    1000000
Info: PRESSURE OUTPUT STEPS  100000
Info: FIXED ATOMS ACTIVE
Info: LANGEVIN DYNAMICS ACTIVE
Info: LANGEVIN TEMPERATURE   30
Info: LANGEVIN USING BBK INTEGRATOR
Info: LANGEVIN DAMPING COEFFICIENT IS 1 INVERSE PS
Info: LANGEVIN DYNAMICS APPLIED TO HYDROGENS
Info: LANGEVIN PISTON PRESSURE CONTROL ACTIVE
Info:        TARGET PRESSURE IS 1.01325 BAR
Info:     OSCILLATION PERIOD IS 50 FS
Info:             DECAY TIME IS 25 FS
Info:     PISTON TEMPERATURE IS 300 K
Info:       PRESSURE CONTROL IS GROUP-BASED
Info:    INITIAL STRAIN RATE IS 0 0 0
Info:       CELL FLUCTUATION IS ISOTROPIC
Info: PARTICLE MESH EWALD (PME) ACTIVE
Info: PME TOLERANCE               1e-06
Info: PME EWALD COEFFICIENT       0.348832
Info: PME INTERPOLATION ORDER     4
Info: PME GRID DIMENSIONS         40 36 36
Info: PME MAXIMUM GRID SPACING    1
Info: FULL ELECTROSTATIC EVALUATION FREQUENCY      2
Info: USING VERLET I (r-RESPA) MTS SCHEME.
Info: C1 SPLITTING OF LONG RANGE ELECTROSTATICS
Info: PLACING ATOMS IN PATCHES BY HYDROGEN GROUPS
Info: RIGID BONDS TO HYDROGEN : ALL
Info:         ERROR TOLERANCE : 1e-08
Info:          MAX ITERATIONS : 100
Info: RIGID WATER USING SETTLE ALGORITHM
Info: RANDOM NUMBER SEED     1743739251
Info: USE HYDROGEN BONDS?    NO
Info: Using AMBER format force field!
Info: AMBER PARM FILE        mobley_5056289.prmtop
Info: COORDINATE PDB         mobley_5056289.pdb
Info: Exclusions will be read from PARM file!
Info: SCNB (VDW SCALING)     2
Info: USING ARITHMETIC MEAN TO COMBINE L-J SIGMA PARAMETERS
Info: BINARY COORDINATES     mobley_5056289_min.coor
Info: SUMMARY OF PARAMETERS:
Info: 6 BONDS
Info: 8 ANGLES
Info:   8 HARMONIC
Info:   0 COSINE-BASED
Info: 11 DIHEDRAL
Info: 0 IMPROPER
Info: 0 CROSSTERM
Info: 0 VDW
Info: 21 VDW_PAIRS
Info: 0 NBTHOLE_PAIRS
Info: STRUCTURE SUMMARY:
Info: 2977 ATOMS
Info: 2977 BONDS
Info: 31 ANGLES
Info: 56 DIHEDRALS
Info: 0 IMPROPERS
Info: 0 CROSSTERMS
Info: 3045 EXCLUSIONS
Info: 16 FIXED ATOMS
Info: 2971 RIGID BONDS
Info: 10 RIGID BONDS BETWEEN FIXED ATOMS
Info: 5922 DEGREES OF FREEDOM
Info: 993 HYDROGEN GROUPS
Info: 4 ATOMS IN LARGEST HYDROGEN GROUP
Info: 993 MIGRATION GROUPS
Info: 4 ATOMS IN LARGEST MIGRATION GROUP
Info: 6 HYDROGEN GROUPS WITH ALL ATOMS FIXED
Info: TOTAL MASS = 17867.9 amu
Info: TOTAL CHARGE = -9.99942e-05 e
Info: MASS DENSITY = 0.664286 g/cm^3
Info: ATOM DENSITY = 0.0666501 atoms/A^3
Info: ADDED 0 IMPLICIT EXCLUSIONS
Info: NONBONDED TABLE R-SQUARED SPACING: 0.0625
Info: NONBONDED TABLE SIZE: 705 POINTS
Info: REMOVING COM VELOCITY 0.186748 0.131671 0.128982
TCL: Running for 100000 steps
ETITLE: TS BOND ANGLE DIHED IMPRP ELECT VDW BOUNDARY MISC KINETIC TOTAL TEMP POTENTIAL TOTAL3 TEMPAVG PRESSURE GPRESSURE VOLUME PRESSAVG GPRESSAVG
ENERGY: 0 0.0000 0.0000 0.0000 0.0000 -13761.0929 2419.6139 0.0000 0.0000 1805.8902 -9535.5888 306.9116 -11341.4791 -9535.2107 306.9116 539.1852 570.6417 44666.1192 539.1852 570.6417
ENERGY: 100000 0.0000 0.0000 0.0000 0.0000 -14380.6738 2530.1537 0.0000 0.0000 176.9165 -11673.6036 30.0670 -11850.5201 -11673.0657 30.9359 303.3436 350.9576 29550.6555 4.4636 4.4840
TCL: Running 100000 steps at 60 kelvin.
TCL: Setting parameter langevinTemp to 60
TCL: Running for 100000 steps
ETITLE: TS BOND ANGLE DIHED IMPRP ELECT VDW BOUNDARY MISC KINETIC TOTAL TEMP POTENTIAL TOTAL3 TEMPAVG PRESSURE GPRESSURE VOLUME PRESSAVG GPRESSAVG
ENERGY: 100000 0.0000 0.0000 0.0000 0.0000 -14380.6738 2530.1537 0.0000 0.0000 176.8295 -11673.6906 30.0522 -11850.5201 -11673.3148 30.0522 305.2024 350.9763 29550.6555 305.2024 350.9763
ENERGY: 200000 0.0000 0.0000 0.0000 0.0000 -14012.7970 2247.0294 0.0000 0.0000 360.3743 -11405.3933 61.2457 -11765.7676 -11404.3168 59.8903 -1595.4373 -1547.9702 29590.6539 4.6038 4.5322
TCL: Running 100000 steps at 90 kelvin.
TCL: Setting parameter langevinTemp to 90
TCL: Running for 100000 steps
ETITLE: TS BOND ANGLE DIHED IMPRP ELECT VDW BOUNDARY MISC KINETIC TOTAL TEMP POTENTIAL TOTAL3 TEMPAVG PRESSURE GPRESSURE VOLUME PRESSAVG GPRESSAVG
ENERGY: 200000 0.0000 0.0000 0.0000 0.0000 -14012.7970 2247.0294 0.0000 0.0000 360.2036 -11405.5640 61.2167 -11765.7676 -11404.8827 61.2167 -1595.7645 -1547.8112 29590.6539 -1595.7645 -1547.8112
ENERGY: 300000 0.0000 0.0000 0.0000 0.0000 -14195.9805 2500.4792 0.0000 0.0000 533.5817 -11161.9196 90.6824 -11695.5013 -11160.3966 89.8594 792.1797 841.8910 29078.3041 4.3678 4.2791
TCL: Running 100000 steps at 120 kelvin.
TCL: Setting parameter langevinTemp to 120
TCL: Running for 100000 steps
ETITLE: TS BOND ANGLE DIHED IMPRP ELECT VDW BOUNDARY MISC KINETIC TOTAL TEMP POTENTIAL TOTAL3 TEMPAVG PRESSURE GPRESSURE VOLUME PRESSAVG GPRESSAVG
ENERGY: 300000 0.0000 0.0000 0.0000 0.0000 -14195.9805 2500.4792 0.0000 0.0000 533.3120 -11162.1893 90.6365 -11695.5013 -11160.9866 90.6365 789.7258 841.6646 29078.3041 789.7258 841.6646
ENERGY: 400000 0.0000 0.0000 0.0000 0.0000 -13913.8905 2352.8237 0.0000 0.0000 706.6654 -10854.4015 120.0980 -11561.0668 -10852.6626 119.9632 -58.4380 -32.1949 29265.7003 3.6580 3.6609
TCL: Running 100000 steps at 150 kelvin.
TCL: Setting parameter langevinTemp to 150
TCL: Running for 100000 steps
ETITLE: TS BOND ANGLE DIHED IMPRP ELECT VDW BOUNDARY MISC KINETIC TOTAL TEMP POTENTIAL TOTAL3 TEMPAVG PRESSURE GPRESSURE VOLUME PRESSAVG GPRESSAVG
ENERGY: 400000 0.0000 0.0000 0.0000 0.0000 -13913.8905 2352.8237 0.0000 0.0000 706.3088 -10854.7580 120.0374 -11561.0668 -10853.2618 120.0374 -72.2391 -32.2114 29265.7003 -72.2391 -32.2114
ENERGY: 500000 0.0000 0.0000 0.0000 0.0000 -13668.5637 2282.7266 0.0000 0.0000 844.5738 -10541.2633 143.5356 -11385.8371 -10538.7912 149.7522 -63.8262 -34.9011 29411.3110 4.5919 4.5467
TCL: Running 100000 steps at 180 kelvin.
TCL: Setting parameter langevinTemp to 180
TCL: Running for 100000 steps
ETITLE: TS BOND ANGLE DIHED IMPRP ELECT VDW BOUNDARY MISC KINETIC TOTAL TEMP POTENTIAL TOTAL3 TEMPAVG PRESSURE GPRESSURE VOLUME PRESSAVG GPRESSAVG
ENERGY: 500000 0.0000 0.0000 0.0000 0.0000 -13668.5637 2282.7266 0.0000 0.0000 844.1363 -10541.7008 143.4612 -11385.8371 -10540.1328 143.4612 -88.1506 -33.4401 29411.3110 -88.1506 -33.4401
ENERGY: 600000 0.0000 0.0000 0.0000 0.0000 -13430.2829 2302.9913 0.0000 0.0000 1059.8939 -10067.3976 180.1293 -11127.2916 -10064.6065 179.8164 1224.3382 1277.0854 28861.3181 3.7347 3.6506
TCL: Running 100000 steps at 210 kelvin.
TCL: Setting parameter langevinTemp to 210
TCL: Running for 100000 steps
ETITLE: TS BOND ANGLE DIHED IMPRP ELECT VDW BOUNDARY MISC KINETIC TOTAL TEMP POTENTIAL TOTAL3 TEMPAVG PRESSURE GPRESSURE VOLUME PRESSAVG GPRESSAVG
ENERGY: 600000 0.0000 0.0000 0.0000 0.0000 -13430.2829 2302.9913 0.0000 0.0000 1059.3809 -10067.9107 180.0421 -11127.2916 -10066.0180 180.0421 1227.0936 1277.4886 28861.3181 1227.0936 1277.4886
ENERGY: 700000 0.0000 0.0000 0.0000 0.0000 -12472.1584 1834.3360 0.0000 0.0000 1241.8158 -9396.0066 211.0470 -10637.8224 -9393.2038 209.5462 -749.0040 -667.0803 29251.3239 3.6851 3.6559
TCL: Running 100000 steps at 240 kelvin.
TCL: Setting parameter langevinTemp to 240
TCL: Running for 100000 steps
ETITLE: TS BOND ANGLE DIHED IMPRP ELECT VDW BOUNDARY MISC KINETIC TOTAL TEMP POTENTIAL TOTAL3 TEMPAVG PRESSURE GPRESSURE VOLUME PRESSAVG GPRESSAVG
ENERGY: 700000 0.0000 0.0000 0.0000 0.0000 -12472.1584 1834.3360 0.0000 0.0000 1241.2173 -9396.6051 210.9453 -10637.8224 -9394.4614 210.9453 -730.9068 -666.7493 29251.3239 -730.9068 -666.7493
ENERGY: 800000 0.0000 0.0000 0.0000 0.0000 -11864.9572 1640.5054 0.0000 0.0000 1478.5381 -8745.9138 251.2780 -10224.4519 -8743.7636 239.8941 -957.8184 -907.3422 29511.4174 3.4652 3.4034
TCL: Running 100000 steps at 270 kelvin.
TCL: Setting parameter langevinTemp to 270
TCL: Running for 100000 steps
ETITLE: TS BOND ANGLE DIHED IMPRP ELECT VDW BOUNDARY MISC KINETIC TOTAL TEMP POTENTIAL TOTAL3 TEMPAVG PRESSURE GPRESSURE VOLUME PRESSAVG GPRESSAVG
ENERGY: 800000 0.0000 0.0000 0.0000 0.0000 -11864.9572 1640.5054 0.0000 0.0000 1477.8313 -8746.6205 251.1579 -10224.4519 -8743.5805 251.1579 -996.8412 -909.6735 29511.4174 -996.8412 -909.6735
ENERGY: 900000 0.0000 0.0000 0.0000 0.0000 -11348.4512 1645.3570 0.0000 0.0000 1570.0910 -8133.0033 266.8375 -9703.0943 -8129.9109 269.9437 663.8158 778.2687 29792.8722 2.9734 2.8758
TCL: Running 1000000 steps at 300 kelvin.
TCL: Setting parameter langevinTemp to 300
TCL: Running for 1000000 steps
ETITLE: TS BOND ANGLE DIHED IMPRP ELECT VDW BOUNDARY MISC KINETIC TOTAL TEMP POTENTIAL TOTAL3 TEMPAVG PRESSURE GPRESSURE VOLUME PRESSAVG GPRESSAVG
ENERGY: 900000 0.0000 0.0000 0.0000 0.0000 -11348.4512 1645.3570 0.0000 0.0000 1569.3223 -8133.7720 266.7068 -9703.0943 -8131.4817 266.7068 681.4575 777.1067 29792.8722 681.4575 777.1067
ENERGY: 1100000 0.0000 0.0000 0.0000 0.0000 -10828.6712 1459.7859 0.0000 0.0000 1793.6031 -7575.2822 304.8234 -9368.8853 -7573.6015 299.7829 77.6118 183.5641 30733.7705 3.5872 3.6103
ENERGY: 1300000 0.0000 0.0000 0.0000 0.0000 -10772.8918 1437.6255 0.0000 0.0000 1792.6999 -7542.5664 304.6699 -9335.2663 -7539.5241 300.2904 -220.5596 -103.6577 31050.2957 2.3689 2.3379
ENERGY: 1500000 0.0000 0.0000 0.0000 0.0000 -10736.3322 1439.9765 0.0000 0.0000 1771.5366 -7524.8191 301.0732 -9296.3557 -7520.9926 300.3177 -131.1146 -72.2986 31049.9562 3.3214 3.4594
ENERGY: 1700000 0.0000 0.0000 0.0000 0.0000 -10776.5779 1460.1073 0.0000 0.0000 1771.7475 -7544.7231 301.1091 -9316.4707 -7544.5440 300.9124 338.6676 450.3932 30265.7845 3.7226 3.7121
ENERGY: 1900000 0.0000 0.0000 0.0000 0.0000 -10827.2724 1456.1615 0.0000 0.0000 1787.1213 -7583.9896 303.7218 -9371.1110 -7578.7891 300.3378 38.5125 116.4987 30542.8927 4.1595 4.2303
TCL: Exiting due to exit command.
