Info: SIMULATION PARAMETERS:
Info: TIMESTEP               2
Info: NUMBER OF STEPS        0
Info: STEPS PER CYCLE        10
Info: PERIODIC CELL BASIS 1  36.592 0 0
Info: PERIODIC CELL BASIS 2  0 35.411 0
Info: PERIODIC CELL BASIS 3  0 0 34.229
Info: PERIODIC CELL CENTER   0 0 0
Info: WRAPPING WATERS AROUND PERIODIC BOUNDARIES ON OUTPUT.
Info: WRAPPING ALL CLUSTERS AROUND PERIODIC BOUNDARIES ON OUTPUT.
Info: FIRST LDB TIMESTEP     50
Info: LAST LDB TIMESTEP     -1
Info: HOM BACKGROUND SCALING 1
Info: PME BACKGROUND SCALING 1
Info: MIN ATOMS PER PATCH    40
Info: EMPTY PATCH LOAD       40 ATOMS
Info: INITIAL TEMPERATURE    300
Info: CENTER OF MASS MOVING INITIALLY? NO
Info: DIELECTRIC             1
Info: EXCLUDE                SCALED ONE-FOUR
Info: 1-4 ELECTROSTATICS SCALED BY 0.833333
Info: MODIFIED 1-4 VDW PARAMETERS WILL BE USED
Info: DCD FILENAME           mobley_5852491_equil.dcd
Info: DCD FREQUENCY          100000
Info: DCD FIRST STEP         100000
Info: DCD FILE WILL CONTAIN UNIT CELL DATA
Info: XST FILENAME           mobley_5852491_equil.xst
Info: XST FREQUENCY          100000
Info: NO VELOCITY DCD OUTPUT
Info: NO FORCE DCD OUTPUT
Info: OUTPUT FILENAME        mobley_5852491_equil
Info: BINARY OUTPUT FILES WILL BE USED
Info: RESTART FILENAME       mobley_5852491_equil.restart
Info: RESTART FREQUENCY      100000
Info: BINARY RESTART FILES WILL BE USED
Info: CUTOFF                 9
Info: PAIRLIST DISTANCE      11
Info: PAIRLIST SHRINK RATE   0.01
Info: PAIRLIST GROW RATE     0.01
Info: PAIRLIST TRIGGER       0.3
Info: PAIRLISTS PER CYCLE    2
Info: PAIRLISTS ENABLED
Info: MARGIN                 8
Info: HYDROGEN GROUP CUTOFF  2.5
Info: PATCH DIMENSION        21.5
Info: ENERGY OUTPUT STEPS    100000
Info: ENERGY EVALUATION STEPS    100000
Info: OUTPUT ENERGY PRECISION 4
Info: CROSSTERM ENERGY INCLUDED IN DIHEDRAL
Info: TIMING OUTPUT STEPS    1000000
Info: PRESSURE OUTPUT STEPS  100000
Info: FIXED ATOMS ACTIVE
Info: LANGEVIN DYNAMICS ACTIVE
Info: LANGEVIN TEMPERATURE   30
Info: LANGEVIN USING BBK INTEGRATOR
Info: LANGEVIN DAMPING COEFFICIENT IS 1 INVERSE PS
Info: LANGEVIN DYNAMICS APPLIED TO HYDROGENS
Info: LANGEVIN PISTON PRESSURE CONTROL ACTIVE
Info:        TARGET PRESSURE IS 1.01325 BAR
Info:     OSCILLATION PERIOD IS 50 FS
Info:             DECAY TIME IS 25 FS
Info:     PISTON TEMPERATURE IS 300 K
Info:       PRESSURE CONTROL IS GROUP-BASED
Info:    INITIAL STRAIN RATE IS 0 0 0
Info:       CELL FLUCTUATION IS ISOTROPIC
Info: PARTICLE MESH EWALD (PME) ACTIVE
Info: PME TOLERANCE               1e-06
Info: PME EWALD COEFFICIENT       0.348832
Info: PME INTERPOLATION ORDER     4
Info: PME GRID DIMENSIONS         40 36 36
Info: PME MAXIMUM GRID SPACING    1
Info: FULL ELECTROSTATIC EVALUATION FREQUENCY      2
Info: USING VERLET I (r-RESPA) MTS SCHEME.
Info: C1 SPLITTING OF LONG RANGE ELECTROSTATICS
Info: PLACING ATOMS IN PATCHES BY HYDROGEN GROUPS
Info: RIGID BONDS TO HYDROGEN : ALL
Info:         ERROR TOLERANCE : 1e-08
Info:          MAX ITERATIONS : 100
Info: RIGID WATER USING SETTLE ALGORITHM
Info: RANDOM NUMBER SEED     1743742859
Info: USE HYDROGEN BONDS?    NO
Info: Using AMBER format force field!
Info: AMBER PARM FILE        mobley_5852491.prmtop
Info: COORDINATE PDB         mobley_5852491.pdb
Info: Exclusions will be read from PARM file!
Info: SCNB (VDW SCALING)     2
Info: USING ARITHMETIC MEAN TO COMBINE L-J SIGMA PARAMETERS
Info: BINARY COORDINATES     mobley_5852491_min.coor
Info: SUMMARY OF PARAMETERS:
Info: 4 BONDS
Info: 3 ANGLES
Info:   3 HARMONIC
Info:   0 COSINE-BASED
Info: 5 DIHEDRAL
Info: 0 IMPROPER
Info: 0 CROSSTERM
Info: 0 VDW
Info: 10 VDW_PAIRS
Info: 0 NBTHOLE_PAIRS
Info: STRUCTURE SUMMARY:
Info: 2937 ATOMS
Info: 2937 BONDS
Info: 36 ANGLES
Info: 68 DIHEDRALS
Info: 0 IMPROPERS
Info: 0 CROSSTERMS
Info: 3022 EXCLUSIONS
Info: 18 FIXED ATOMS
Info: 2931 RIGID BONDS
Info: 12 RIGID BONDS BETWEEN FIXED ATOMS
Info: 5838 DEGREES OF FREEDOM
Info: 979 HYDROGEN GROUPS
Info: 4 ATOMS IN LARGEST HYDROGEN GROUP
Info: 979 MIGRATION GROUPS
Info: 4 ATOMS IN LARGEST MIGRATION GROUP
Info: 6 HYDROGEN GROUPS WITH ALL ATOMS FIXED
Info: TOTAL MASS = 17613.7 amu
Info: TOTAL CHARGE = 0.000100002 e
Info: MASS DENSITY = 0.659465 g/cm^3
Info: ATOM DENSITY = 0.0662194 atoms/A^3
Info: ADDED 0 IMPLICIT EXCLUSIONS
Info: NONBONDED TABLE R-SQUARED SPACING: 0.0625
Info: NONBONDED TABLE SIZE: 705 POINTS
Info: REMOVING COM VELOCITY 0.1509 -0.0718018 -0.0457267
TCL: Running for 100000 steps
ETITLE: TS BOND ANGLE DIHED IMPRP ELECT VDW BOUNDARY MISC KINETIC TOTAL TEMP POTENTIAL TOTAL3 TEMPAVG PRESSURE GPRESSURE VOLUME PRESSAVG GPRESSAVG
ENERGY: 0 0.0000 0.0000 0.0000 0.0000 -13626.9096 2427.9979 0.0000 0.0000 1800.4653 -9398.4464 310.3924 -11198.9117 -9398.0918 310.3924 541.1692 572.9942 44352.5455 541.1692 572.9942
ENERGY: 100000 0.0000 0.0000 0.0000 0.0000 -14118.8662 2442.3437 0.0000 0.0000 174.7004 -11501.8220 30.1176 -11676.5225 -11501.1340 30.9349 -188.0208 -142.2972 28582.2626 3.5871 3.5620
TCL: Running 100000 steps at 60 kelvin.
TCL: Setting parameter langevinTemp to 60
TCL: Running for 100000 steps
ETITLE: TS BOND ANGLE DIHED IMPRP ELECT VDW BOUNDARY MISC KINETIC TOTAL TEMP POTENTIAL TOTAL3 TEMPAVG PRESSURE GPRESSURE VOLUME PRESSAVG GPRESSAVG
ENERGY: 100000 0.0000 0.0000 0.0000 0.0000 -14118.8662 2442.3437 0.0000 0.0000 174.6162 -11501.9063 30.1031 -11676.5225 -11501.5717 30.1031 -194.7844 -142.1988 28582.2626 -194.7844 -142.1988
ENERGY: 200000 0.0000 0.0000 0.0000 0.0000 -14055.3753 2426.3297 0.0000 0.0000 355.8605 -11273.1850 61.3488 -11629.0455 -11272.4844 59.8842 -184.0652 -135.4475 28593.1298 4.7373 4.6959
TCL: Running 100000 steps at 90 kelvin.
TCL: Setting parameter langevinTemp to 90
TCL: Running for 100000 steps
ETITLE: TS BOND ANGLE DIHED IMPRP ELECT VDW BOUNDARY MISC KINETIC TOTAL TEMP POTENTIAL TOTAL3 TEMPAVG PRESSURE GPRESSURE VOLUME PRESSAVG GPRESSAVG
ENERGY: 200000 0.0000 0.0000 0.0000 0.0000 -14055.3753 2426.3297 0.0000 0.0000 355.6855 -11273.3600 61.3186 -11629.0455 -11272.6597 61.3186 -182.4237 -135.4661 28593.1298 -182.4237 -135.4661
ENERGY: 300000 0.0000 0.0000 0.0000 0.0000 -13782.9459 2276.3610 0.0000 0.0000 541.9158 -10964.6691 93.4239 -11506.5850 -10963.2344 90.0452 -713.8166 -657.6338 28398.1400 3.2093 3.2371
TCL: Running 100000 steps at 120 kelvin.
TCL: Setting parameter langevinTemp to 120
TCL: Running for 100000 steps
ETITLE: TS BOND ANGLE DIHED IMPRP ELECT VDW BOUNDARY MISC KINETIC TOTAL TEMP POTENTIAL TOTAL3 TEMPAVG PRESSURE GPRESSURE VOLUME PRESSAVG GPRESSAVG
ENERGY: 300000 0.0000 0.0000 0.0000 0.0000 -13782.9459 2276.3610 0.0000 0.0000 541.6607 -10964.9243 93.3799 -11506.5850 -10963.9808 93.3799 -710.2332 -657.7752 28398.1400 -710.2332 -657.7752
ENERGY: 400000 0.0000 0.0000 0.0000 0.0000 -13649.3064 2255.9741 0.0000 0.0000 711.7089 -10681.6234 122.6955 -11393.3323 -10678.7296 119.9333 -536.0054 -519.4249 28648.1254 3.2045 3.2333
TCL: Running 100000 steps at 150 kelvin.
TCL: Setting parameter langevinTemp to 150
TCL: Running for 100000 steps
ETITLE: TS BOND ANGLE DIHED IMPRP ELECT VDW BOUNDARY MISC KINETIC TOTAL TEMP POTENTIAL TOTAL3 TEMPAVG PRESSURE GPRESSURE VOLUME PRESSAVG GPRESSAVG
ENERGY: 400000 0.0000 0.0000 0.0000 0.0000 -13649.3064 2255.9741 0.0000 0.0000 711.3602 -10681.9721 122.6354 -11393.3323 -10680.6358 122.6354 -561.3006 -517.2870 28648.1254 -561.3006 -517.2870
ENERGY: 500000 0.0000 0.0000 0.0000 0.0000 -13564.9411 2337.0948 0.0000 0.0000 858.0707 -10369.7757 147.9276 -11227.8464 -10368.4115 150.2772 826.4246 904.7852 28421.2658 4.1383 3.9668
TCL: Running 100000 steps at 180 kelvin.
TCL: Setting parameter langevinTemp to 180
TCL: Running for 100000 steps
ETITLE: TS BOND ANGLE DIHED IMPRP ELECT VDW BOUNDARY MISC KINETIC TOTAL TEMP POTENTIAL TOTAL3 TEMPAVG PRESSURE GPRESSURE VOLUME PRESSAVG GPRESSAVG
ENERGY: 500000 0.0000 0.0000 0.0000 0.0000 -13564.9411 2337.0948 0.0000 0.0000 857.6378 -10370.2086 147.8530 -11227.8464 -10368.5506 147.8530 852.7172 904.9609 28421.2658 852.7172 904.9609
ENERGY: 600000 0.0000 0.0000 0.0000 0.0000 -13072.2468 2105.3732 0.0000 0.0000 1064.8762 -9901.9974 183.5800 -10966.8736 -9899.7234 179.9457 -149.8140 -149.5545 28870.8825 3.5308 3.5580
TCL: Running 100000 steps at 210 kelvin.
TCL: Setting parameter langevinTemp to 210
TCL: Running for 100000 steps
ETITLE: TS BOND ANGLE DIHED IMPRP ELECT VDW BOUNDARY MISC KINETIC TOTAL TEMP POTENTIAL TOTAL3 TEMPAVG PRESSURE GPRESSURE VOLUME PRESSAVG GPRESSAVG
ENERGY: 600000 0.0000 0.0000 0.0000 0.0000 -13072.2468 2105.3732 0.0000 0.0000 1064.3436 -9902.5299 183.4882 -10966.8736 -9900.5927 183.4882 -200.2099 -151.1160 28870.8825 -200.2099 -151.1160
ENERGY: 700000 0.0000 0.0000 0.0000 0.0000 -12429.7514 1965.7285 0.0000 0.0000 1262.8677 -9201.1551 217.7129 -10464.0228 -9198.9698 209.3795 811.3584 895.9221 28448.8147 3.9617 4.0668
TCL: Running 100000 steps at 240 kelvin.
TCL: Setting parameter langevinTemp to 240
TCL: Running for 100000 steps
ETITLE: TS BOND ANGLE DIHED IMPRP ELECT VDW BOUNDARY MISC KINETIC TOTAL TEMP POTENTIAL TOTAL3 TEMPAVG PRESSURE GPRESSURE VOLUME PRESSAVG GPRESSAVG
ENERGY: 700000 0.0000 0.0000 0.0000 0.0000 -12429.7514 1965.7285 0.0000 0.0000 1262.2347 -9201.7881 217.6038 -10464.0228 -9199.3520 217.6038 815.7390 896.3009 28448.8147 815.7390 896.3009
ENERGY: 800000 0.0000 0.0000 0.0000 0.0000 -11567.0530 1589.7002 0.0000 0.0000 1397.2646 -8580.0882 240.8823 -9977.3528 -8577.8455 240.5031 -815.0201 -727.0463 28843.1949 2.7224 2.7072
TCL: Running 100000 steps at 270 kelvin.
TCL: Setting parameter langevinTemp to 270
TCL: Running for 100000 steps
ETITLE: TS BOND ANGLE DIHED IMPRP ELECT VDW BOUNDARY MISC KINETIC TOTAL TEMP POTENTIAL TOTAL3 TEMPAVG PRESSURE GPRESSURE VOLUME PRESSAVG GPRESSAVG
ENERGY: 800000 0.0000 0.0000 0.0000 0.0000 -11567.0530 1589.7002 0.0000 0.0000 1396.5475 -8580.8053 240.7587 -9977.3528 -8578.3560 240.7587 -832.0507 -728.1844 28843.1949 -832.0507 -728.1844
ENERGY: 900000 0.0000 0.0000 0.0000 0.0000 -11347.6808 1700.6621 0.0000 0.0000 1530.1629 -8116.8557 263.7934 -9647.0187 -8111.8816 269.9186 895.6743 1002.2103 29521.2880 3.7181 3.7993
TCL: Running 1000000 steps at 300 kelvin.
TCL: Setting parameter langevinTemp to 300
TCL: Running for 1000000 steps
ETITLE: TS BOND ANGLE DIHED IMPRP ELECT VDW BOUNDARY MISC KINETIC TOTAL TEMP POTENTIAL TOTAL3 TEMPAVG PRESSURE GPRESSURE VOLUME PRESSAVG GPRESSAVG
ENERGY: 900000 0.0000 0.0000 0.0000 0.0000 -11347.6808 1700.6621 0.0000 0.0000 1529.4237 -8117.5949 263.6660 -9647.0187 -8116.0053 263.6660 909.8720 1005.2272 29521.2880 909.8720 1005.2272
ENERGY: 1100000 0.0000 0.0000 0.0000 0.0000 -10597.4747 1373.1227 0.0000 0.0000 1736.5689 -7487.7831 299.3769 -9224.3520 -7484.9357 299.8976 -660.0884 -551.3604 30494.2656 3.4752 3.2399
ENERGY: 1300000 0.0000 0.0000 0.0000 0.0000 -10708.4288 1512.1917 0.0000 0.0000 1773.3577 -7422.8794 305.7191 -9196.2371 -7420.4998 300.0070 383.3805 456.8473 30885.2049 3.2421 3.1669
ENERGY: 1500000 0.0000 0.0000 0.0000 0.0000 -10629.0308 1401.7492 0.0000 0.0000 1773.3047 -7453.9769 305.7100 -9227.2816 -7449.6318 299.8472 -82.9658 -16.1355 30127.1295 2.9522 2.9096
ENERGY: 1700000 0.0000 0.0000 0.0000 0.0000 -10520.7362 1335.9512 0.0000 0.0000 1745.7486 -7439.0364 300.9595 -9184.7850 -7435.3445 300.2666 -549.1154 -453.7888 30105.2715 2.8333 2.7455
ENERGY: 1900000 0.0000 0.0000 0.0000 0.0000 -10499.3624 1321.9561 0.0000 0.0000 1721.8896 -7455.5167 296.8463 -9177.4064 -7451.6555 299.9344 -872.4182 -817.3932 30449.1084 2.6177 2.6933
TCL: Exiting due to exit command.
