Info: SIMULATION PARAMETERS:
Info: TIMESTEP               2
Info: NUMBER OF STEPS        0
Info: STEPS PER CYCLE        10
Info: PERIODIC CELL BASIS 1  36.592 0 0
Info: PERIODIC CELL BASIS 2  0 35.411 0
Info: PERIODIC CELL BASIS 3  0 0 34.68
Info: PERIODIC CELL CENTER   0 0 0
Info: WRAPPING WATERS AROUND PERIODIC BOUNDARIES ON OUTPUT.
Info: WRAPPING ALL CLUSTERS AROUND PERIODIC BOUNDARIES ON OUTPUT.
Info: FIRST LDB TIMESTEP     50
Info: LAST LDB TIMESTEP     -1
Info: HOM BACKGROUND SCALING 1
Info: PME BACKGROUND SCALING 1
Info: MIN ATOMS PER PATCH    40
Info: EMPTY PATCH LOAD       40 ATOMS
Info: INITIAL TEMPERATURE    300
Info: CENTER OF MASS MOVING INITIALLY? NO
Info: DIELECTRIC             1
Info: EXCLUDE                SCALED ONE-FOUR
Info: 1-4 ELECTROSTATICS SCALED BY 0.833333
Info: MODIFIED 1-4 VDW PARAMETERS WILL BE USED
Info: DCD FILENAME           mobley_1717215_equil.dcd
Info: DCD FREQUENCY          100000
Info: DCD FIRST STEP         100000
Info: DCD FILE WILL CONTAIN UNIT CELL DATA
Info: XST FILENAME           mobley_1717215_equil.xst
Info: XST FREQUENCY          100000
Info: NO VELOCITY DCD OUTPUT
Info: NO FORCE DCD OUTPUT
Info: OUTPUT FILENAME        mobley_1717215_equil
Info: BINARY OUTPUT FILES WILL BE USED
Info: RESTART FILENAME       mobley_1717215_equil.restart
Info: RESTART FREQUENCY      100000
Info: BINARY RESTART FILES WILL BE USED
Info: CUTOFF                 9
Info: PAIRLIST DISTANCE      11
Info: PAIRLIST SHRINK RATE   0.01
Info: PAIRLIST GROW RATE     0.01
Info: PAIRLIST TRIGGER       0.3
Info: PAIRLISTS PER CYCLE    2
Info: PAIRLISTS ENABLED
Info: MARGIN                 8
Info: HYDROGEN GROUP CUTOFF  2.5
Info: PATCH DIMENSION        21.5
Info: ENERGY OUTPUT STEPS    100000
Info: ENERGY EVALUATION STEPS    100000
Info: OUTPUT ENERGY PRECISION 4
Info: CROSSTERM ENERGY INCLUDED IN DIHEDRAL
Info: TIMING OUTPUT STEPS    1000000
Info: PRESSURE OUTPUT STEPS  100000
Info: FIXED ATOMS ACTIVE
Info: LANGEVIN DYNAMICS ACTIVE
Info: LANGEVIN TEMPERATURE   30
Info: LANGEVIN USING BBK INTEGRATOR
Info: LANGEVIN DAMPING COEFFICIENT IS 1 INVERSE PS
Info: LANGEVIN DYNAMICS APPLIED TO HYDROGENS
Info: LANGEVIN PISTON PRESSURE CONTROL ACTIVE
Info:        TARGET PRESSURE IS 1.01325 BAR
Info:     OSCILLATION PERIOD IS 50 FS
Info:             DECAY TIME IS 25 FS
Info:     PISTON TEMPERATURE IS 300 K
Info:       PRESSURE CONTROL IS GROUP-BASED
Info:    INITIAL STRAIN RATE IS 0 0 0
Info:       CELL FLUCTUATION IS ISOTROPIC
Info: PARTICLE MESH EWALD (PME) ACTIVE
Info: PME TOLERANCE               1e-06
Info: PME EWALD COEFFICIENT       0.348832
Info: PME INTERPOLATION ORDER     4
Info: PME GRID DIMENSIONS         40 36 36
Info: PME MAXIMUM GRID SPACING    1
Info: FULL ELECTROSTATIC EVALUATION FREQUENCY      2
Info: USING VERLET I (r-RESPA) MTS SCHEME.
Info: C1 SPLITTING OF LONG RANGE ELECTROSTATICS
Info: PLACING ATOMS IN PATCHES BY HYDROGEN GROUPS
Info: RIGID BONDS TO HYDROGEN : ALL
Info:         ERROR TOLERANCE : 1e-08
Info:          MAX ITERATIONS : 100
Info: RIGID WATER USING SETTLE ALGORITHM
Info: RANDOM NUMBER SEED     1743900483
Info: USE HYDROGEN BONDS?    NO
Info: Using AMBER format force field!
Info: AMBER PARM FILE        mobley_1717215.prmtop
Info: COORDINATE PDB         mobley_1717215.pdb
Info: Exclusions will be read from PARM file!
Info: SCNB (VDW SCALING)     2
Info: USING ARITHMETIC MEAN TO COMBINE L-J SIGMA PARAMETERS
Info: BINARY COORDINATES     mobley_1717215_min.coor
Info: SUMMARY OF PARAMETERS:
Info: 7 BONDS
Info: 6 ANGLES
Info:   6 HARMONIC
Info:   0 COSINE-BASED
Info: 4 DIHEDRAL
Info: 0 IMPROPER
Info: 0 CROSSTERM
Info: 0 VDW
Info: 36 VDW_PAIRS
Info: 0 NBTHOLE_PAIRS
Info: STRUCTURE SUMMARY:
Info: 2987 ATOMS
Info: 2986 BONDS
Info: 10 ANGLES
Info: 7 DIHEDRALS
Info: 0 IMPROPERS
Info: 0 CROSSTERMS
Info: 3001 EXCLUSIONS
Info: 8 FIXED ATOMS
Info: 2983 RIGID BONDS
Info: 4 RIGID BONDS BETWEEN FIXED ATOMS
Info: 5958 DEGREES OF FREEDOM
Info: 997 HYDROGEN GROUPS
Info: 4 ATOMS IN LARGEST HYDROGEN GROUP
Info: 997 MIGRATION GROUPS
Info: 4 ATOMS IN LARGEST MIGRATION GROUP
Info: 4 HYDROGEN GROUPS WITH ALL ATOMS FIXED
Info: TOTAL MASS = 17949.9 amu
Info: TOTAL CHARGE = -9.99756e-05 e
Info: MASS DENSITY = 0.663313 g/cm^3
Info: ATOM DENSITY = 0.0664709 atoms/A^3
Info: ADDED 0 IMPLICIT EXCLUSIONS
Info: NONBONDED TABLE R-SQUARED SPACING: 0.0625
Info: NONBONDED TABLE SIZE: 705 POINTS
Info: REMOVING COM VELOCITY 0.0606103 -0.0116398 -0.139513
TCL: Running for 100000 steps
ETITLE: TS BOND ANGLE DIHED IMPRP ELECT VDW BOUNDARY MISC KINETIC TOTAL TEMP POTENTIAL TOTAL3 TEMPAVG PRESSURE GPRESSURE VOLUME PRESSAVG GPRESSAVG
ENERGY: 0 0.0000 0.0000 0.0000 0.0000 -13960.9854 2455.8374 0.0000 0.0000 1788.3895 -9716.7585 302.1009 -11505.1480 -9716.3797 302.1009 563.9536 596.1288 44936.9329 563.9536 596.1288
ENERGY: 100000 0.0000 0.0000 0.0000 0.0000 -14554.3472 2559.7567 0.0000 0.0000 181.5797 -11813.0107 30.6731 -11994.5904 -11812.5300 30.8712 348.6477 407.5805 29105.8647 4.9582 4.9936
TCL: Running 100000 steps at 60 kelvin.
TCL: Setting parameter langevinTemp to 60
TCL: Running for 100000 steps
ETITLE: TS BOND ANGLE DIHED IMPRP ELECT VDW BOUNDARY MISC KINETIC TOTAL TEMP POTENTIAL TOTAL3 TEMPAVG PRESSURE GPRESSURE VOLUME PRESSAVG GPRESSAVG
ENERGY: 100000 0.0000 0.0000 0.0000 0.0000 -14554.3472 2559.7567 0.0000 0.0000 181.4862 -11813.1042 30.6573 -11994.5904 -11812.7772 30.6573 360.5651 407.5508 29105.8647 360.5651 407.5508
ENERGY: 200000 0.0000 0.0000 0.0000 0.0000 -14273.5009 2391.8349 0.0000 0.0000 355.8071 -11525.8589 60.1042 -11881.6660 -11524.7855 60.0291 -563.2296 -516.3901 29260.2622 4.9349 4.9862
TCL: Running 100000 steps at 90 kelvin.
TCL: Setting parameter langevinTemp to 90
TCL: Running for 100000 steps
ETITLE: TS BOND ANGLE DIHED IMPRP ELECT VDW BOUNDARY MISC KINETIC TOTAL TEMP POTENTIAL TOTAL3 TEMPAVG PRESSURE GPRESSURE VOLUME PRESSAVG GPRESSAVG
ENERGY: 200000 0.0000 0.0000 0.0000 0.0000 -14273.5009 2391.8349 0.0000 0.0000 355.6304 -11526.0355 60.0743 -11881.6660 -11525.3157 60.0743 -563.9845 -515.9436 29260.2622 -563.9845 -515.9436
ENERGY: 300000 0.0000 0.0000 0.0000 0.0000 -14148.5239 2373.9256 0.0000 0.0000 530.1220 -11244.4763 89.5500 -11774.5983 -11243.0727 89.9103 -141.9495 -118.5474 28968.9646 3.8540 3.8380
TCL: Running 100000 steps at 120 kelvin.
TCL: Setting parameter langevinTemp to 120
TCL: Running for 100000 steps
ETITLE: TS BOND ANGLE DIHED IMPRP ELECT VDW BOUNDARY MISC KINETIC TOTAL TEMP POTENTIAL TOTAL3 TEMPAVG PRESSURE GPRESSURE VOLUME PRESSAVG GPRESSAVG
ENERGY: 300000 0.0000 0.0000 0.0000 0.0000 -14148.5239 2373.9256 0.0000 0.0000 529.8518 -11244.7465 89.5044 -11774.5983 -11243.8332 89.5044 -178.5152 -118.1847 28968.9646 -178.5152 -118.1847
ENERGY: 400000 0.0000 0.0000 0.0000 0.0000 -13979.0816 2314.8882 0.0000 0.0000 708.1587 -10956.0348 119.6246 -11664.1934 -10955.1049 119.9159 -433.6190 -420.0495 29331.7636 4.2886 4.1704
TCL: Running 100000 steps at 150 kelvin.
TCL: Setting parameter langevinTemp to 150
TCL: Running for 100000 steps
ETITLE: TS BOND ANGLE DIHED IMPRP ELECT VDW BOUNDARY MISC KINETIC TOTAL TEMP POTENTIAL TOTAL3 TEMPAVG PRESSURE GPRESSURE VOLUME PRESSAVG GPRESSAVG
ENERGY: 400000 0.0000 0.0000 0.0000 0.0000 -13979.0816 2314.8882 0.0000 0.0000 707.7879 -10956.4055 119.5620 -11664.1934 -10954.9052 119.5620 -474.6321 -421.5277 29331.7636 -474.6321 -421.5277
ENERGY: 500000 0.0000 0.0000 0.0000 0.0000 -13637.1924 2185.3844 0.0000 0.0000 876.6584 -10575.1496 148.0881 -11451.8080 -10572.8505 149.8830 -556.6645 -514.2737 29109.0120 4.6490 4.6452
TCL: Running 100000 steps at 180 kelvin.
TCL: Setting parameter langevinTemp to 180
TCL: Running for 100000 steps
ETITLE: TS BOND ANGLE DIHED IMPRP ELECT VDW BOUNDARY MISC KINETIC TOTAL TEMP POTENTIAL TOTAL3 TEMPAVG PRESSURE GPRESSURE VOLUME PRESSAVG GPRESSAVG
ENERGY: 500000 0.0000 0.0000 0.0000 0.0000 -13637.1924 2185.3844 0.0000 0.0000 876.2093 -10575.5987 148.0123 -11451.8080 -10573.9231 148.0123 -569.4047 -514.1264 29109.0120 -569.4047 -514.1264
ENERGY: 600000 0.0000 0.0000 0.0000 0.0000 -13511.1309 2265.4686 0.0000 0.0000 1076.2574 -10169.4050 181.8051 -11245.6624 -10166.2922 179.8583 867.6433 968.6831 28968.5294 4.5843 4.7759
TCL: Running 100000 steps at 210 kelvin.
TCL: Setting parameter langevinTemp to 210
TCL: Running for 100000 steps
ETITLE: TS BOND ANGLE DIHED IMPRP ELECT VDW BOUNDARY MISC KINETIC TOTAL TEMP POTENTIAL TOTAL3 TEMPAVG PRESSURE GPRESSURE VOLUME PRESSAVG GPRESSAVG
ENERGY: 600000 0.0000 0.0000 0.0000 0.0000 -13511.1309 2265.4686 0.0000 0.0000 1075.7372 -10169.9251 181.7172 -11245.6624 -10168.3845 181.7172 902.5133 969.4397 28968.5294 902.5133 969.4397
ENERGY: 700000 0.0000 0.0000 0.0000 0.0000 -12727.8139 1933.2282 0.0000 0.0000 1288.7519 -9505.8338 217.7004 -10794.5857 -9503.6775 209.6041 -178.3412 -118.4052 29367.0701 3.7983 3.6725
TCL: Running 100000 steps at 240 kelvin.
TCL: Setting parameter langevinTemp to 240
TCL: Running for 100000 steps
ETITLE: TS BOND ANGLE DIHED IMPRP ELECT VDW BOUNDARY MISC KINETIC TOTAL TEMP POTENTIAL TOTAL3 TEMPAVG PRESSURE GPRESSURE VOLUME PRESSAVG GPRESSAVG
ENERGY: 700000 0.0000 0.0000 0.0000 0.0000 -12727.8139 1933.2282 0.0000 0.0000 1288.1157 -9506.4699 217.5929 -10794.5857 -9503.7020 217.5929 -198.9304 -118.5290 29367.0701 -198.9304 -118.5290
ENERGY: 800000 0.0000 0.0000 0.0000 0.0000 -11996.1945 1692.0992 0.0000 0.0000 1396.4422 -8907.6532 235.8918 -10304.0953 -8903.3135 240.2861 -295.7518 -234.6556 29106.0303 3.4807 3.3750
TCL: Running 100000 steps at 270 kelvin.
TCL: Setting parameter langevinTemp to 270
TCL: Running for 100000 steps
ETITLE: TS BOND ANGLE DIHED IMPRP ELECT VDW BOUNDARY MISC KINETIC TOTAL TEMP POTENTIAL TOTAL3 TEMPAVG PRESSURE GPRESSURE VOLUME PRESSAVG GPRESSAVG
ENERGY: 800000 0.0000 0.0000 0.0000 0.0000 -11996.1945 1692.0992 0.0000 0.0000 1395.7573 -8908.3380 235.7761 -10304.0953 -8905.4371 235.7761 -311.2663 -233.7621 29106.0303 -311.2663 -233.7621
ENERGY: 900000 0.0000 0.0000 0.0000 0.0000 -11390.5372 1565.7757 0.0000 0.0000 1565.7702 -8258.9914 264.4953 -9824.7616 -8256.3993 270.2919 -102.7825 -55.5131 30067.5047 3.5377 3.5450
TCL: Running 1000000 steps at 300 kelvin.
TCL: Setting parameter langevinTemp to 300
TCL: Running for 1000000 steps
ETITLE: TS BOND ANGLE DIHED IMPRP ELECT VDW BOUNDARY MISC KINETIC TOTAL TEMP POTENTIAL TOTAL3 TEMPAVG PRESSURE GPRESSURE VOLUME PRESSAVG GPRESSAVG
ENERGY: 900000 0.0000 0.0000 0.0000 0.0000 -11390.5372 1565.7757 0.0000 0.0000 1564.9540 -8259.8076 264.3574 -9824.7616 -8257.5427 264.3574 -131.0357 -55.8610 30067.5047 -131.0357 -55.8610
ENERGY: 1100000 0.0000 0.0000 0.0000 0.0000 -10812.3760 1449.0649 0.0000 0.0000 1763.2681 -7600.0431 297.8573 -9363.3112 -7597.9799 300.5929 86.0248 216.0494 30560.2915 3.0016 2.9815
ENERGY: 1300000 0.0000 0.0000 0.0000 0.0000 -10952.2452 1471.6885 0.0000 0.0000 1765.9809 -7714.5759 298.3155 -9480.5568 -7712.6764 299.9408 -15.8868 101.5092 30696.2903 2.9572 2.9837
ENERGY: 1500000 0.0000 0.0000 0.0000 0.0000 -10938.6630 1463.8026 0.0000 0.0000 1778.1637 -7696.6968 300.3735 -9474.8605 -7693.8119 299.6667 144.3179 220.6352 30468.9324 3.3384 3.2531
ENERGY: 1700000 0.0000 0.0000 0.0000 0.0000 -10878.3543 1427.8077 0.0000 0.0000 1751.9256 -7698.6210 295.9413 -9450.5466 -7695.5801 300.1820 13.4542 88.8527 30299.2747 3.6961 3.5048
ENERGY: 1900000 0.0000 0.0000 0.0000 0.0000 -10930.8854 1434.4116 0.0000 0.0000 1790.1095 -7706.3644 302.3914 -9496.4738 -7703.5633 300.2119 -5.6784 87.0670 30135.4595 3.1366 3.1674
TCL: Exiting due to exit command.
