Info: SIMULATION PARAMETERS:
Info: TIMESTEP               2
Info: NUMBER OF STEPS        0
Info: STEPS PER CYCLE        10
Info: PERIODIC CELL BASIS 1  36.592 0 0
Info: PERIODIC CELL BASIS 2  0 35.411 0
Info: PERIODIC CELL BASIS 3  0 0 34.229
Info: PERIODIC CELL CENTER   0 0 0
Info: WRAPPING WATERS AROUND PERIODIC BOUNDARIES ON OUTPUT.
Info: WRAPPING ALL CLUSTERS AROUND PERIODIC BOUNDARIES ON OUTPUT.
Info: FIRST LDB TIMESTEP     50
Info: LAST LDB TIMESTEP     -1
Info: HOM BACKGROUND SCALING 1
Info: PME BACKGROUND SCALING 1
Info: MIN ATOMS PER PATCH    40
Info: EMPTY PATCH LOAD       40 ATOMS
Info: INITIAL TEMPERATURE    300
Info: CENTER OF MASS MOVING INITIALLY? NO
Info: DIELECTRIC             1
Info: EXCLUDE                SCALED ONE-FOUR
Info: 1-4 ELECTROSTATICS SCALED BY 0.833333
Info: MODIFIED 1-4 VDW PARAMETERS WILL BE USED
Info: DCD FILENAME           mobley_3867265_equil.dcd
Info: DCD FREQUENCY          100000
Info: DCD FIRST STEP         100000
Info: DCD FILE WILL CONTAIN UNIT CELL DATA
Info: XST FILENAME           mobley_3867265_equil.xst
Info: XST FREQUENCY          100000
Info: NO VELOCITY DCD OUTPUT
Info: NO FORCE DCD OUTPUT
Info: OUTPUT FILENAME        mobley_3867265_equil
Info: BINARY OUTPUT FILES WILL BE USED
Info: RESTART FILENAME       mobley_3867265_equil.restart
Info: RESTART FREQUENCY      100000
Info: BINARY RESTART FILES WILL BE USED
Info: CUTOFF                 9
Info: PAIRLIST DISTANCE      11
Info: PAIRLIST SHRINK RATE   0.01
Info: PAIRLIST GROW RATE     0.01
Info: PAIRLIST TRIGGER       0.3
Info: PAIRLISTS PER CYCLE    2
Info: PAIRLISTS ENABLED
Info: MARGIN                 8
Info: HYDROGEN GROUP CUTOFF  2.5
Info: PATCH DIMENSION        21.5
Info: ENERGY OUTPUT STEPS    100000
Info: ENERGY EVALUATION STEPS    100000
Info: OUTPUT ENERGY PRECISION 4
Info: CROSSTERM ENERGY INCLUDED IN DIHEDRAL
Info: TIMING OUTPUT STEPS    1000000
Info: PRESSURE OUTPUT STEPS  100000
Info: FIXED ATOMS ACTIVE
Info: LANGEVIN DYNAMICS ACTIVE
Info: LANGEVIN TEMPERATURE   30
Info: LANGEVIN USING BBK INTEGRATOR
Info: LANGEVIN DAMPING COEFFICIENT IS 1 INVERSE PS
Info: LANGEVIN DYNAMICS APPLIED TO HYDROGENS
Info: LANGEVIN PISTON PRESSURE CONTROL ACTIVE
Info:        TARGET PRESSURE IS 1.01325 BAR
Info:     OSCILLATION PERIOD IS 50 FS
Info:             DECAY TIME IS 25 FS
Info:     PISTON TEMPERATURE IS 300 K
Info:       PRESSURE CONTROL IS GROUP-BASED
Info:    INITIAL STRAIN RATE IS 0 0 0
Info:       CELL FLUCTUATION IS ISOTROPIC
Info: PARTICLE MESH EWALD (PME) ACTIVE
Info: PME TOLERANCE               1e-06
Info: PME EWALD COEFFICIENT       0.348832
Info: PME INTERPOLATION ORDER     4
Info: PME GRID DIMENSIONS         40 36 36
Info: PME MAXIMUM GRID SPACING    1
Info: FULL ELECTROSTATIC EVALUATION FREQUENCY      2
Info: USING VERLET I (r-RESPA) MTS SCHEME.
Info: C1 SPLITTING OF LONG RANGE ELECTROSTATICS
Info: PLACING ATOMS IN PATCHES BY HYDROGEN GROUPS
Info: RIGID BONDS TO HYDROGEN : ALL
Info:         ERROR TOLERANCE : 1e-08
Info:          MAX ITERATIONS : 100
Info: RIGID WATER USING SETTLE ALGORITHM
Info: RANDOM NUMBER SEED     1743675139
Info: USE HYDROGEN BONDS?    NO
Info: Using AMBER format force field!
Info: AMBER PARM FILE        mobley_3867265.prmtop
Info: COORDINATE PDB         mobley_3867265.pdb
Info: Exclusions will be read from PARM file!
Info: SCNB (VDW SCALING)     2
Info: USING ARITHMETIC MEAN TO COMBINE L-J SIGMA PARAMETERS
Info: BINARY COORDINATES     mobley_3867265_min.coor
Info: SUMMARY OF PARAMETERS:
Info: 5 BONDS
Info: 4 ANGLES
Info:   4 HARMONIC
Info:   0 COSINE-BASED
Info: 5 DIHEDRAL
Info: 0 IMPROPER
Info: 0 CROSSTERM
Info: 0 VDW
Info: 21 VDW_PAIRS
Info: 0 NBTHOLE_PAIRS
Info: STRUCTURE SUMMARY:
Info: 2956 ATOMS
Info: 2955 BONDS
Info: 15 ANGLES
Info: 25 DIHEDRALS
Info: 0 IMPROPERS
Info: 0 CROSSTERMS
Info: 2982 EXCLUSIONS
Info: 10 FIXED ATOMS
Info: 2952 RIGID BONDS
Info: 6 RIGID BONDS BETWEEN FIXED ATOMS
Info: 5892 DEGREES OF FREEDOM
Info: 986 HYDROGEN GROUPS
Info: 4 ATOMS IN LARGEST HYDROGEN GROUP
Info: 986 MIGRATION GROUPS
Info: 4 ATOMS IN LARGEST MIGRATION GROUP
Info: 4 HYDROGEN GROUPS WITH ALL ATOMS FIXED
Info: TOTAL MASS = 17749.8 amu
Info: TOTAL CHARGE = 0.000199959 e
Info: MASS DENSITY = 0.66456 g/cm^3
Info: ATOM DENSITY = 0.0666478 atoms/A^3
Info: ADDED 0 IMPLICIT EXCLUSIONS
Info: NONBONDED TABLE R-SQUARED SPACING: 0.0625
Info: NONBONDED TABLE SIZE: 705 POINTS
Info: REMOVING COM VELOCITY -0.0399083 -0.0673593 0.00403356
TCL: Running for 100000 steps
ETITLE: TS BOND ANGLE DIHED IMPRP ELECT VDW BOUNDARY MISC KINETIC TOTAL TEMP POTENTIAL TOTAL3 TEMPAVG PRESSURE GPRESSURE VOLUME PRESSAVG GPRESSAVG
ENERGY: 0 0.0000 0.0000 0.0000 0.0000 -13721.5347 2402.3578 0.0000 0.0000 1763.2403 -9555.9365 301.1890 -11319.1768 -9555.6053 301.1890 334.9109 367.5002 44352.5455 334.9109 367.5002
ENERGY: 100000 0.0000 0.0000 0.0000 0.0000 -14384.2645 2518.2649 0.0000 0.0000 172.1185 -11693.8810 29.4005 -11865.9995 -11693.2497 30.8755 179.0660 229.1304 28655.4726 3.7295 3.6666
TCL: Running 100000 steps at 60 kelvin.
TCL: Setting parameter langevinTemp to 60
TCL: Running for 100000 steps
ETITLE: TS BOND ANGLE DIHED IMPRP ELECT VDW BOUNDARY MISC KINETIC TOTAL TEMP POTENTIAL TOTAL3 TEMPAVG PRESSURE GPRESSURE VOLUME PRESSAVG GPRESSAVG
ENERGY: 100000 0.0000 0.0000 0.0000 0.0000 -14384.2645 2518.2649 0.0000 0.0000 172.0309 -11693.9687 29.3856 -11865.9995 -11693.6159 29.3856 175.0049 229.1707 28655.4726 175.0049 229.1707
ENERGY: 200000 0.0000 0.0000 0.0000 0.0000 -14113.0585 2343.2071 0.0000 0.0000 342.9842 -11426.8673 58.5871 -11769.8514 -11426.1141 59.9348 -1010.4880 -984.8423 29092.3588 5.0867 5.0291
TCL: Running 100000 steps at 90 kelvin.
TCL: Setting parameter langevinTemp to 90
TCL: Running for 100000 steps
ETITLE: TS BOND ANGLE DIHED IMPRP ELECT VDW BOUNDARY MISC KINETIC TOTAL TEMP POTENTIAL TOTAL3 TEMPAVG PRESSURE GPRESSURE VOLUME PRESSAVG GPRESSAVG
ENERGY: 200000 0.0000 0.0000 0.0000 0.0000 -14113.0585 2343.2071 0.0000 0.0000 342.8170 -11427.0344 58.5585 -11769.8514 -11426.2628 58.5585 -1039.1732 -984.9051 29092.3588 -1039.1732 -984.9051
ENERGY: 300000 0.0000 0.0000 0.0000 0.0000 -14157.9254 2490.3650 0.0000 0.0000 524.5756 -11142.9849 89.6057 -11667.5605 -11140.8846 89.9023 701.7452 765.2371 28796.3550 4.6365 4.6554
TCL: Running 100000 steps at 120 kelvin.
TCL: Setting parameter langevinTemp to 120
TCL: Running for 100000 steps
ETITLE: TS BOND ANGLE DIHED IMPRP ELECT VDW BOUNDARY MISC KINETIC TOTAL TEMP POTENTIAL TOTAL3 TEMPAVG PRESSURE GPRESSURE VOLUME PRESSAVG GPRESSAVG
ENERGY: 300000 0.0000 0.0000 0.0000 0.0000 -14157.9254 2490.3650 0.0000 0.0000 524.3229 -11143.2376 89.5626 -11667.5605 -11142.4366 89.5626 732.4296 766.5585 28796.3550 732.4296 766.5585
ENERGY: 400000 0.0000 0.0000 0.0000 0.0000 -13764.6998 2215.6686 0.0000 0.0000 720.1036 -10828.9275 123.0050 -11549.0312 -10826.0848 120.0193 -1156.3847 -1119.2538 29201.1551 3.6111 3.6075
TCL: Running 100000 steps at 150 kelvin.
TCL: Setting parameter langevinTemp to 150
TCL: Running for 100000 steps
ETITLE: TS BOND ANGLE DIHED IMPRP ELECT VDW BOUNDARY MISC KINETIC TOTAL TEMP POTENTIAL TOTAL3 TEMPAVG PRESSURE GPRESSURE VOLUME PRESSAVG GPRESSAVG
ENERGY: 400000 0.0000 0.0000 0.0000 0.0000 -13764.6998 2215.6686 0.0000 0.0000 719.7461 -10829.2850 122.9439 -11549.0312 -10827.6504 122.9439 -1164.3276 -1117.9370 29201.1551 -1164.3276 -1117.9370
ENERGY: 500000 0.0000 0.0000 0.0000 0.0000 -13531.5238 2183.5354 0.0000 0.0000 871.7433 -10476.2451 148.9074 -11347.9884 -10474.0829 150.0781 -629.6577 -584.8150 29083.9756 3.0193 2.8346
TCL: Running 100000 steps at 180 kelvin.
TCL: Setting parameter langevinTemp to 180
TCL: Running for 100000 steps
ETITLE: TS BOND ANGLE DIHED IMPRP ELECT VDW BOUNDARY MISC KINETIC TOTAL TEMP POTENTIAL TOTAL3 TEMPAVG PRESSURE GPRESSURE VOLUME PRESSAVG GPRESSAVG
ENERGY: 500000 0.0000 0.0000 0.0000 0.0000 -13531.5238 2183.5354 0.0000 0.0000 871.3057 -10476.6827 148.8326 -11347.9884 -10475.2334 148.8326 -641.9879 -584.5845 29083.9756 -641.9879 -584.5845
ENERGY: 600000 0.0000 0.0000 0.0000 0.0000 -13073.2657 2016.0983 0.0000 0.0000 1061.4628 -9995.7046 181.3145 -11057.1674 -9993.5061 179.7735 -1030.6945 -993.6283 29303.3911 3.5851 3.5991
TCL: Running 100000 steps at 210 kelvin.
TCL: Setting parameter langevinTemp to 210
TCL: Running for 100000 steps
ETITLE: TS BOND ANGLE DIHED IMPRP ELECT VDW BOUNDARY MISC KINETIC TOTAL TEMP POTENTIAL TOTAL3 TEMPAVG PRESSURE GPRESSURE VOLUME PRESSAVG GPRESSAVG
ENERGY: 600000 0.0000 0.0000 0.0000 0.0000 -13073.2657 2016.0983 0.0000 0.0000 1060.9296 -9996.2378 181.2234 -11057.1674 -9994.5555 181.2234 -1049.1570 -993.9004 29303.3911 -1049.1570 -993.9004
ENERGY: 700000 0.0000 0.0000 0.0000 0.0000 -12402.6682 1821.2299 0.0000 0.0000 1194.3683 -9387.0700 204.0168 -10581.4383 -9384.2815 209.8280 -610.9014 -553.3185 28896.2272 3.6283 3.5078
TCL: Running 100000 steps at 240 kelvin.
TCL: Setting parameter langevinTemp to 240
TCL: Running for 100000 steps
ETITLE: TS BOND ANGLE DIHED IMPRP ELECT VDW BOUNDARY MISC KINETIC TOTAL TEMP POTENTIAL TOTAL3 TEMPAVG PRESSURE GPRESSURE VOLUME PRESSAVG GPRESSAVG
ENERGY: 700000 0.0000 0.0000 0.0000 0.0000 -12402.6682 1821.2299 0.0000 0.0000 1193.7554 -9387.6828 203.9121 -10581.4383 -9386.0060 203.9121 -628.6338 -553.5205 28896.2272 -628.6338 -553.5205
ENERGY: 800000 0.0000 0.0000 0.0000 0.0000 -11696.6915 1625.3431 0.0000 0.0000 1411.5596 -8659.7888 241.1165 -10071.3484 -8657.4202 240.0391 -631.7577 -538.7745 29216.6036 2.9929 3.0234
TCL: Running 100000 steps at 270 kelvin.
TCL: Setting parameter langevinTemp to 270
TCL: Running for 100000 steps
ETITLE: TS BOND ANGLE DIHED IMPRP ELECT VDW BOUNDARY MISC KINETIC TOTAL TEMP POTENTIAL TOTAL3 TEMPAVG PRESSURE GPRESSURE VOLUME PRESSAVG GPRESSAVG
ENERGY: 800000 0.0000 0.0000 0.0000 0.0000 -11696.6915 1625.3431 0.0000 0.0000 1410.8605 -8660.4879 240.9970 -10071.3484 -8658.2539 240.9970 -626.9990 -539.1476 29216.6036 -626.9990 -539.1476
ENERGY: 900000 0.0000 0.0000 0.0000 0.0000 -11439.8223 1689.3171 0.0000 0.0000 1582.8378 -8167.6674 270.3735 -9750.5052 -8165.9425 270.0176 1041.0004 1105.9732 29543.5936 4.2760 4.1379
TCL: Running 1000000 steps at 300 kelvin.
TCL: Setting parameter langevinTemp to 300
TCL: Running for 1000000 steps
ETITLE: TS BOND ANGLE DIHED IMPRP ELECT VDW BOUNDARY MISC KINETIC TOTAL TEMP POTENTIAL TOTAL3 TEMPAVG PRESSURE GPRESSURE VOLUME PRESSAVG GPRESSAVG
ENERGY: 900000 0.0000 0.0000 0.0000 0.0000 -11439.8223 1689.3171 0.0000 0.0000 1582.0533 -8168.4518 270.2395 -9750.5052 -8165.5310 270.2395 1028.3650 1104.3267 29543.5936 1028.3650 1104.3267
ENERGY: 1100000 0.0000 0.0000 0.0000 0.0000 -10826.5117 1516.8743 0.0000 0.0000 1779.6066 -7530.0308 303.9847 -9309.6374 -7528.3347 299.9659 368.4575 465.1519 30782.3450 2.5449 2.4982
ENERGY: 1300000 0.0000 0.0000 0.0000 0.0000 -10792.6212 1486.0063 0.0000 0.0000 1758.0689 -7548.5460 300.3057 -9306.6149 -7545.7505 300.1940 344.9028 393.4574 30587.3688 4.0114 4.1048
ENERGY: 1500000 0.0000 0.0000 0.0000 0.0000 -10749.7274 1458.4282 0.0000 0.0000 1723.9562 -7567.3430 294.4787 -9291.2992 -7565.4065 300.5680 285.0029 372.9434 30071.6390 2.5192 2.4985
ENERGY: 1700000 0.0000 0.0000 0.0000 0.0000 -10681.7983 1394.5814 0.0000 0.0000 1741.2736 -7545.9434 297.4368 -9287.2169 -7543.6289 300.6678 -377.9720 -272.6460 30819.7966 2.8625 2.6177
ENERGY: 1900000 0.0000 0.0000 0.0000 0.0000 -10591.9544 1360.6031 0.0000 0.0000 1696.7930 -7534.5582 289.8388 -9231.3512 -7529.7121 299.6893 -458.0140 -384.7326 30498.8977 4.2783 4.2523
TCL: Exiting due to exit command.
