Info: SIMULATION PARAMETERS:
Info: TIMESTEP               2
Info: NUMBER OF STEPS        0
Info: STEPS PER CYCLE        10
Info: PERIODIC CELL BASIS 1  37.435 0 0
Info: PERIODIC CELL BASIS 2  0 34.26 0
Info: PERIODIC CELL BASIS 3  0 0 33.27
Info: PERIODIC CELL CENTER   0 0 0
Info: WRAPPING WATERS AROUND PERIODIC BOUNDARIES ON OUTPUT.
Info: WRAPPING ALL CLUSTERS AROUND PERIODIC BOUNDARIES ON OUTPUT.
Info: FIRST LDB TIMESTEP     50
Info: LAST LDB TIMESTEP     -1
Info: HOM BACKGROUND SCALING 1
Info: PME BACKGROUND SCALING 1
Info: MIN ATOMS PER PATCH    40
Info: EMPTY PATCH LOAD       40 ATOMS
Info: INITIAL TEMPERATURE    300
Info: CENTER OF MASS MOVING INITIALLY? NO
Info: DIELECTRIC             1
Info: EXCLUDE                SCALED ONE-FOUR
Info: 1-4 ELECTROSTATICS SCALED BY 0.833333
Info: MODIFIED 1-4 VDW PARAMETERS WILL BE USED
Info: DCD FILENAME           mobley_6988468_equil.dcd
Info: DCD FREQUENCY          100000
Info: DCD FIRST STEP         100000
Info: DCD FILE WILL CONTAIN UNIT CELL DATA
Info: XST FILENAME           mobley_6988468_equil.xst
Info: XST FREQUENCY          100000
Info: NO VELOCITY DCD OUTPUT
Info: NO FORCE DCD OUTPUT
Info: OUTPUT FILENAME        mobley_6988468_equil
Info: BINARY OUTPUT FILES WILL BE USED
Info: RESTART FILENAME       mobley_6988468_equil.restart
Info: RESTART FREQUENCY      100000
Info: BINARY RESTART FILES WILL BE USED
Info: CUTOFF                 9
Info: PAIRLIST DISTANCE      11
Info: PAIRLIST SHRINK RATE   0.01
Info: PAIRLIST GROW RATE     0.01
Info: PAIRLIST TRIGGER       0.3
Info: PAIRLISTS PER CYCLE    2
Info: PAIRLISTS ENABLED
Info: MARGIN                 8
Info: HYDROGEN GROUP CUTOFF  2.5
Info: PATCH DIMENSION        21.5
Info: ENERGY OUTPUT STEPS    100000
Info: ENERGY EVALUATION STEPS    100000
Info: OUTPUT ENERGY PRECISION 4
Info: CROSSTERM ENERGY INCLUDED IN DIHEDRAL
Info: TIMING OUTPUT STEPS    1000000
Info: PRESSURE OUTPUT STEPS  100000
Info: FIXED ATOMS ACTIVE
Info: LANGEVIN DYNAMICS ACTIVE
Info: LANGEVIN TEMPERATURE   30
Info: LANGEVIN USING BBK INTEGRATOR
Info: LANGEVIN DAMPING COEFFICIENT IS 1 INVERSE PS
Info: LANGEVIN DYNAMICS APPLIED TO HYDROGENS
Info: LANGEVIN PISTON PRESSURE CONTROL ACTIVE
Info:        TARGET PRESSURE IS 1.01325 BAR
Info:     OSCILLATION PERIOD IS 50 FS
Info:             DECAY TIME IS 25 FS
Info:     PISTON TEMPERATURE IS 300 K
Info:       PRESSURE CONTROL IS GROUP-BASED
Info:    INITIAL STRAIN RATE IS 0 0 0
Info:       CELL FLUCTUATION IS ISOTROPIC
Info: PARTICLE MESH EWALD (PME) ACTIVE
Info: PME TOLERANCE               1e-06
Info: PME EWALD COEFFICIENT       0.348832
Info: PME INTERPOLATION ORDER     4
Info: PME GRID DIMENSIONS         40 36 36
Info: PME MAXIMUM GRID SPACING    1
Info: FULL ELECTROSTATIC EVALUATION FREQUENCY      2
Info: USING VERLET I (r-RESPA) MTS SCHEME.
Info: C1 SPLITTING OF LONG RANGE ELECTROSTATICS
Info: PLACING ATOMS IN PATCHES BY HYDROGEN GROUPS
Info: RIGID BONDS TO HYDROGEN : ALL
Info:         ERROR TOLERANCE : 1e-08
Info:          MAX ITERATIONS : 100
Info: RIGID WATER USING SETTLE ALGORITHM
Info: RANDOM NUMBER SEED     1744087430
Info: USE HYDROGEN BONDS?    NO
Info: Using AMBER format force field!
Info: AMBER PARM FILE        mobley_6988468.prmtop
Info: COORDINATE PDB         mobley_6988468.pdb
Info: Exclusions will be read from PARM file!
Info: SCNB (VDW SCALING)     2
Info: USING ARITHMETIC MEAN TO COMBINE L-J SIGMA PARAMETERS
Info: BINARY COORDINATES     mobley_6988468_min.coor
Info: SUMMARY OF PARAMETERS:
Info: 9 BONDS
Info: 12 ANGLES
Info:   12 HARMONIC
Info:   0 COSINE-BASED
Info: 6 DIHEDRAL
Info: 0 IMPROPER
Info: 0 CROSSTERM
Info: 0 VDW
Info: 36 VDW_PAIRS
Info: 0 NBTHOLE_PAIRS
Info: STRUCTURE SUMMARY:
Info: 2915 ATOMS
Info: 2915 BONDS
Info: 28 ANGLES
Info: 40 DIHEDRALS
Info: 0 IMPROPERS
Info: 0 CROSSTERMS
Info: 2975 EXCLUSIONS
Info: 17 FIXED ATOMS
Info: 2907 RIGID BONDS
Info: 9 RIGID BONDS BETWEEN FIXED ATOMS
Info: 5796 DEGREES OF FREEDOM
Info: 974 HYDROGEN GROUPS
Info: 4 ATOMS IN LARGEST HYDROGEN GROUP
Info: 974 MIGRATION GROUPS
Info: 4 ATOMS IN LARGEST MIGRATION GROUP
Info: 8 HYDROGEN GROUPS WITH ALL ATOMS FIXED
Info: TOTAL MASS = 17510.6 amu
Info: TOTAL CHARGE = 0.000199962 e
Info: MASS DENSITY = 0.681463 g/cm^3
Info: ATOM DENSITY = 0.0683157 atoms/A^3
Info: ADDED 0 IMPLICIT EXCLUSIONS
Info: NONBONDED TABLE R-SQUARED SPACING: 0.0625
Info: NONBONDED TABLE SIZE: 705 POINTS
Info: REMOVING COM VELOCITY 0.175355 -0.105105 0.173766
TCL: Running for 100000 steps
ETITLE: TS BOND ANGLE DIHED IMPRP ELECT VDW BOUNDARY MISC KINETIC TOTAL TEMP POTENTIAL TOTAL3 TEMPAVG PRESSURE GPRESSURE VOLUME PRESSAVG GPRESSAVG
ENERGY: 0 0.0000 0.0000 0.0000 0.0000 -13457.2814 2314.2878 0.0000 0.0000 1702.3299 -9440.6638 295.6009 -11142.9936 -9440.3439 295.6009 213.5842 251.7582 42669.5435 213.5842 251.7582
ENERGY: 100000 0.0000 0.0000 0.0000 0.0000 -14088.8408 2404.5207 0.0000 0.0000 166.0750 -11518.2451 28.8381 -11684.3202 -11517.7556 30.9373 -180.4409 -138.8870 28101.6359 4.7304 4.7595
TCL: Running 100000 steps at 60 kelvin.
TCL: Setting parameter langevinTemp to 60
TCL: Running for 100000 steps
ETITLE: TS BOND ANGLE DIHED IMPRP ELECT VDW BOUNDARY MISC KINETIC TOTAL TEMP POTENTIAL TOTAL3 TEMPAVG PRESSURE GPRESSURE VOLUME PRESSAVG GPRESSAVG
ENERGY: 100000 0.0000 0.0000 0.0000 0.0000 -14088.8408 2404.5207 0.0000 0.0000 165.9870 -11518.3332 28.8228 -11684.3202 -11518.0193 28.8228 -189.9073 -138.8565 28101.6359 -189.9073 -138.8565
ENERGY: 200000 0.0000 0.0000 0.0000 0.0000 -13959.4906 2377.0270 0.0000 0.0000 341.0356 -11241.4279 59.2191 -11582.4636 -11240.7356 59.9304 85.7517 152.5343 28039.4656 3.0885 2.9783
TCL: Running 100000 steps at 90 kelvin.
TCL: Setting parameter langevinTemp to 90
TCL: Running for 100000 steps
ETITLE: TS BOND ANGLE DIHED IMPRP ELECT VDW BOUNDARY MISC KINETIC TOTAL TEMP POTENTIAL TOTAL3 TEMPAVG PRESSURE GPRESSURE VOLUME PRESSAVG GPRESSAVG
ENERGY: 200000 0.0000 0.0000 0.0000 0.0000 -13959.4906 2377.0270 0.0000 0.0000 340.8581 -11241.6055 59.1883 -11582.4636 -11240.9522 59.1883 97.7243 152.5613 28039.4656 97.7243 152.5613
ENERGY: 300000 0.0000 0.0000 0.0000 0.0000 -13784.6381 2276.5564 0.0000 0.0000 506.8398 -11001.2420 88.0101 -11508.0818 -10999.6481 89.8304 -672.6401 -587.1947 28379.1951 4.1325 4.1437
TCL: Running 100000 steps at 120 kelvin.
TCL: Setting parameter langevinTemp to 120
TCL: Running for 100000 steps
ETITLE: TS BOND ANGLE DIHED IMPRP ELECT VDW BOUNDARY MISC KINETIC TOTAL TEMP POTENTIAL TOTAL3 TEMPAVG PRESSURE GPRESSURE VOLUME PRESSAVG GPRESSAVG
ENERGY: 300000 0.0000 0.0000 0.0000 0.0000 -13784.6381 2276.5564 0.0000 0.0000 506.5732 -11001.5086 87.9638 -11508.0818 -11000.4343 87.9638 -640.7020 -586.6285 28379.1951 -640.7020 -586.6285
ENERGY: 400000 0.0000 0.0000 0.0000 0.0000 -13621.1260 2252.2803 0.0000 0.0000 678.1234 -10690.7223 117.7527 -11368.8457 -10689.3272 119.8834 -269.2382 -168.0204 28304.0267 4.0345 4.0833
TCL: Running 100000 steps at 150 kelvin.
TCL: Setting parameter langevinTemp to 150
TCL: Running for 100000 steps
ETITLE: TS BOND ANGLE DIHED IMPRP ELECT VDW BOUNDARY MISC KINETIC TOTAL TEMP POTENTIAL TOTAL3 TEMPAVG PRESSURE GPRESSURE VOLUME PRESSAVG GPRESSAVG
ENERGY: 400000 0.0000 0.0000 0.0000 0.0000 -13621.1260 2252.2803 0.0000 0.0000 677.7873 -10691.0584 117.6943 -11368.8457 -10689.7458 117.6943 -215.3792 -167.8534 28304.0267 -215.3792 -167.8534
ENERGY: 500000 0.0000 0.0000 0.0000 0.0000 -13348.1734 2160.2810 0.0000 0.0000 877.3007 -10310.5918 152.3388 -11187.8925 -10307.7400 150.0698 -320.7333 -267.3867 28249.7094 4.2033 4.0792
TCL: Running 100000 steps at 180 kelvin.
TCL: Setting parameter langevinTemp to 180
TCL: Running for 100000 steps
ETITLE: TS BOND ANGLE DIHED IMPRP ELECT VDW BOUNDARY MISC KINETIC TOTAL TEMP POTENTIAL TOTAL3 TEMPAVG PRESSURE GPRESSURE VOLUME PRESSAVG GPRESSAVG
ENERGY: 500000 0.0000 0.0000 0.0000 0.0000 -13348.1734 2160.2810 0.0000 0.0000 876.8630 -10311.0295 152.2628 -11187.8925 -10309.8401 152.2628 -337.5155 -266.4788 28249.7094 -337.5155 -266.4788
ENERGY: 600000 0.0000 0.0000 0.0000 0.0000 -12813.8048 1968.5753 0.0000 0.0000 1035.0557 -9810.1739 179.7321 -10845.2296 -9807.7331 180.0129 -862.8420 -774.7548 28625.9410 3.4213 3.4024
TCL: Running 100000 steps at 210 kelvin.
TCL: Setting parameter langevinTemp to 210
TCL: Running for 100000 steps
ETITLE: TS BOND ANGLE DIHED IMPRP ELECT VDW BOUNDARY MISC KINETIC TOTAL TEMP POTENTIAL TOTAL3 TEMPAVG PRESSURE GPRESSURE VOLUME PRESSAVG GPRESSAVG
ENERGY: 600000 0.0000 0.0000 0.0000 0.0000 -12813.8048 1968.5753 0.0000 0.0000 1034.5416 -9810.6880 179.6429 -10845.2296 -9808.3236 179.6429 -835.1427 -775.7629 28625.9410 -835.1427 -775.7629
ENERGY: 700000 0.0000 0.0000 0.0000 0.0000 -12265.7744 1819.2337 0.0000 0.0000 1229.8344 -9216.7063 213.5545 -10446.5407 -9214.3185 210.2116 -498.8563 -453.4192 28726.2743 3.5492 3.5587
TCL: Running 100000 steps at 240 kelvin.
TCL: Setting parameter langevinTemp to 240
TCL: Running for 100000 steps
ETITLE: TS BOND ANGLE DIHED IMPRP ELECT VDW BOUNDARY MISC KINETIC TOTAL TEMP POTENTIAL TOTAL3 TEMPAVG PRESSURE GPRESSURE VOLUME PRESSAVG GPRESSAVG
ENERGY: 700000 0.0000 0.0000 0.0000 0.0000 -12265.7744 1819.2337 0.0000 0.0000 1229.2394 -9217.3013 213.4511 -10446.5407 -9215.2213 213.4511 -539.0301 -454.3935 28726.2743 -539.0301 -454.3935
ENERGY: 800000 0.0000 0.0000 0.0000 0.0000 -11737.4720 1712.2898 0.0000 0.0000 1374.4349 -8650.7473 238.6636 -10025.1822 -8647.3702 240.6641 160.9929 274.3930 28429.7620 3.2380 3.2586
TCL: Running 100000 steps at 270 kelvin.
TCL: Setting parameter langevinTemp to 270
TCL: Running for 100000 steps
ETITLE: TS BOND ANGLE DIHED IMPRP ELECT VDW BOUNDARY MISC KINETIC TOTAL TEMP POTENTIAL TOTAL3 TEMPAVG PRESSURE GPRESSURE VOLUME PRESSAVG GPRESSAVG
ENERGY: 800000 0.0000 0.0000 0.0000 0.0000 -11737.4720 1712.2898 0.0000 0.0000 1373.7385 -8651.4437 238.5427 -10025.1822 -8649.4456 238.5427 196.3127 273.5677 28429.7620 196.3127 273.5677
ENERGY: 900000 0.0000 0.0000 0.0000 0.0000 -11110.7970 1477.6186 0.0000 0.0000 1522.1388 -8111.0395 264.3116 -9633.1783 -8107.6403 269.9006 -807.1327 -712.7428 29544.1992 4.3508 4.2591
TCL: Running 1000000 steps at 300 kelvin.
TCL: Setting parameter langevinTemp to 300
TCL: Running for 1000000 steps
ETITLE: TS BOND ANGLE DIHED IMPRP ELECT VDW BOUNDARY MISC KINETIC TOTAL TEMP POTENTIAL TOTAL3 TEMPAVG PRESSURE GPRESSURE VOLUME PRESSAVG GPRESSAVG
ENERGY: 900000 0.0000 0.0000 0.0000 0.0000 -11110.7970 1477.6186 0.0000 0.0000 1521.3578 -8111.8206 264.1760 -9633.1783 -8109.1728 264.1760 -781.9812 -712.2693 29544.1992 -781.9812 -712.2693
ENERGY: 1100000 0.0000 0.0000 0.0000 0.0000 -10600.6195 1365.6385 0.0000 0.0000 1683.4860 -7551.4950 292.3287 -9234.9810 -7547.6041 299.1261 -691.5963 -678.8593 30467.1055 4.4927 4.4554
ENERGY: 1300000 0.0000 0.0000 0.0000 0.0000 -10670.5907 1453.1214 0.0000 0.0000 1743.5943 -7473.8750 302.7662 -9217.4693 -7471.5997 300.3499 247.6204 336.5834 30042.1224 4.2231 4.1527
ENERGY: 1500000 0.0000 0.0000 0.0000 0.0000 -10506.5877 1368.6326 0.0000 0.0000 1740.6652 -7397.2899 302.2576 -9137.9551 -7396.0151 300.1249 -117.4241 -49.4070 30093.1457 1.8794 1.7796
ENERGY: 1700000 0.0000 0.0000 0.0000 0.0000 -10490.9971 1353.8437 0.0000 0.0000 1738.9636 -7398.1899 301.9621 -9137.1535 -7394.6967 300.1389 -248.8987 -188.8463 29989.4124 3.0247 3.0361
ENERGY: 1900000 0.0000 0.0000 0.0000 0.0000 -10574.8521 1376.3187 0.0000 0.0000 1711.8003 -7486.7331 297.2454 -9198.5334 -7484.2955 301.0860 -589.6527 -575.1124 30732.3124 2.4946 2.6711
TCL: Exiting due to exit command.
