Info: SIMULATION PARAMETERS:
Info: TIMESTEP               2
Info: NUMBER OF STEPS        0
Info: STEPS PER CYCLE        10
Info: PERIODIC CELL BASIS 1  37.435 0 0
Info: PERIODIC CELL BASIS 2  0 35.267 0
Info: PERIODIC CELL BASIS 3  0 0 33.088
Info: PERIODIC CELL CENTER   0 0 0
Info: WRAPPING WATERS AROUND PERIODIC BOUNDARIES ON OUTPUT.
Info: WRAPPING ALL CLUSTERS AROUND PERIODIC BOUNDARIES ON OUTPUT.
Info: FIRST LDB TIMESTEP     50
Info: LAST LDB TIMESTEP     -1
Info: HOM BACKGROUND SCALING 1
Info: PME BACKGROUND SCALING 1
Info: MIN ATOMS PER PATCH    40
Info: EMPTY PATCH LOAD       40 ATOMS
Info: INITIAL TEMPERATURE    300
Info: CENTER OF MASS MOVING INITIALLY? NO
Info: DIELECTRIC             1
Info: EXCLUDE                SCALED ONE-FOUR
Info: 1-4 ELECTROSTATICS SCALED BY 0.833333
Info: MODIFIED 1-4 VDW PARAMETERS WILL BE USED
Info: DCD FILENAME           mobley_511661_equil.dcd
Info: DCD FREQUENCY          100000
Info: DCD FIRST STEP         100000
Info: DCD FILE WILL CONTAIN UNIT CELL DATA
Info: XST FILENAME           mobley_511661_equil.xst
Info: XST FREQUENCY          100000
Info: NO VELOCITY DCD OUTPUT
Info: NO FORCE DCD OUTPUT
Info: OUTPUT FILENAME        mobley_511661_equil
Info: BINARY OUTPUT FILES WILL BE USED
Info: RESTART FILENAME       mobley_511661_equil.restart
Info: RESTART FREQUENCY      100000
Info: BINARY RESTART FILES WILL BE USED
Info: CUTOFF                 9
Info: PAIRLIST DISTANCE      11
Info: PAIRLIST SHRINK RATE   0.01
Info: PAIRLIST GROW RATE     0.01
Info: PAIRLIST TRIGGER       0.3
Info: PAIRLISTS PER CYCLE    2
Info: PAIRLISTS ENABLED
Info: MARGIN                 8
Info: HYDROGEN GROUP CUTOFF  2.5
Info: PATCH DIMENSION        21.5
Info: ENERGY OUTPUT STEPS    100000
Info: ENERGY EVALUATION STEPS    100000
Info: OUTPUT ENERGY PRECISION 4
Info: CROSSTERM ENERGY INCLUDED IN DIHEDRAL
Info: TIMING OUTPUT STEPS    1000000
Info: PRESSURE OUTPUT STEPS  100000
Info: FIXED ATOMS ACTIVE
Info: LANGEVIN DYNAMICS ACTIVE
Info: LANGEVIN TEMPERATURE   30
Info: LANGEVIN USING BBK INTEGRATOR
Info: LANGEVIN DAMPING COEFFICIENT IS 1 INVERSE PS
Info: LANGEVIN DYNAMICS APPLIED TO HYDROGENS
Info: LANGEVIN PISTON PRESSURE CONTROL ACTIVE
Info:        TARGET PRESSURE IS 1.01325 BAR
Info:     OSCILLATION PERIOD IS 50 FS
Info:             DECAY TIME IS 25 FS
Info:     PISTON TEMPERATURE IS 300 K
Info:       PRESSURE CONTROL IS GROUP-BASED
Info:    INITIAL STRAIN RATE IS 0 0 0
Info:       CELL FLUCTUATION IS ISOTROPIC
Info: PARTICLE MESH EWALD (PME) ACTIVE
Info: PME TOLERANCE               1e-06
Info: PME EWALD COEFFICIENT       0.348832
Info: PME INTERPOLATION ORDER     4
Info: PME GRID DIMENSIONS         40 36 36
Info: PME MAXIMUM GRID SPACING    1
Info: FULL ELECTROSTATIC EVALUATION FREQUENCY      2
Info: USING VERLET I (r-RESPA) MTS SCHEME.
Info: C1 SPLITTING OF LONG RANGE ELECTROSTATICS
Info: PLACING ATOMS IN PATCHES BY HYDROGEN GROUPS
Info: RIGID BONDS TO HYDROGEN : ALL
Info:         ERROR TOLERANCE : 1e-08
Info:          MAX ITERATIONS : 100
Info: RIGID WATER USING SETTLE ALGORITHM
Info: RANDOM NUMBER SEED     1743900654
Info: USE HYDROGEN BONDS?    NO
Info: Using AMBER format force field!
Info: AMBER PARM FILE        mobley_511661.prmtop
Info: COORDINATE PDB         mobley_511661.pdb
Info: Exclusions will be read from PARM file!
Info: SCNB (VDW SCALING)     2
Info: USING ARITHMETIC MEAN TO COMBINE L-J SIGMA PARAMETERS
Info: BINARY COORDINATES     mobley_511661_min.coor
Info: SUMMARY OF PARAMETERS:
Info: 6 BONDS
Info: 5 ANGLES
Info:   5 HARMONIC
Info:   0 COSINE-BASED
Info: 3 DIHEDRAL
Info: 0 IMPROPER
Info: 0 CROSSTERM
Info: 0 VDW
Info: 10 VDW_PAIRS
Info: 0 NBTHOLE_PAIRS
Info: STRUCTURE SUMMARY:
Info: 2950 ATOMS
Info: 2949 BONDS
Info: 12 ANGLES
Info: 16 DIHEDRALS
Info: 0 IMPROPERS
Info: 0 CROSSTERMS
Info: 2973 EXCLUSIONS
Info: 10 FIXED ATOMS
Info: 2946 RIGID BONDS
Info: 6 RIGID BONDS BETWEEN FIXED ATOMS
Info: 5880 DEGREES OF FREEDOM
Info: 984 HYDROGEN GROUPS
Info: 3 ATOMS IN LARGEST HYDROGEN GROUP
Info: 984 MIGRATION GROUPS
Info: 3 ATOMS IN LARGEST MIGRATION GROUP
Info: 4 HYDROGEN GROUPS WITH ALL ATOMS FIXED
Info: TOTAL MASS = 17709.8 amu
Info: TOTAL CHARGE = -1.49012e-08 e
Info: MASS DENSITY = 0.673217 g/cm^3
Info: ATOM DENSITY = 0.0675313 atoms/A^3
Info: ADDED 0 IMPLICIT EXCLUSIONS
Info: NONBONDED TABLE R-SQUARED SPACING: 0.0625
Info: NONBONDED TABLE SIZE: 705 POINTS
Info: REMOVING COM VELOCITY -0.00966812 0.0773509 -0.148904
TCL: Running for 100000 steps
ETITLE: TS BOND ANGLE DIHED IMPRP ELECT VDW BOUNDARY MISC KINETIC TOTAL TEMP POTENTIAL TOTAL3 TEMPAVG PRESSURE GPRESSURE VOLUME PRESSAVG GPRESSAVG
ENERGY: 0 0.0000 0.0000 0.0000 0.0000 -13672.1365 2380.2213 0.0000 0.0000 1718.5816 -9573.3336 294.1597 -11291.9152 -9572.9745 294.1597 251.9979 283.1339 43683.4442 251.9979 283.1339
ENERGY: 100000 0.0000 0.0000 0.0000 0.0000 -14264.7271 2473.8657 0.0000 0.0000 173.6161 -11617.2454 29.7169 -11790.8614 -11616.8846 30.8624 -46.4950 -14.1074 28627.3127 5.1407 5.2139
TCL: Running 100000 steps at 60 kelvin.
TCL: Setting parameter langevinTemp to 60
TCL: Running for 100000 steps
ETITLE: TS BOND ANGLE DIHED IMPRP ELECT VDW BOUNDARY MISC KINETIC TOTAL TEMP POTENTIAL TOTAL3 TEMPAVG PRESSURE GPRESSURE VOLUME PRESSAVG GPRESSAVG
ENERGY: 100000 0.0000 0.0000 0.0000 0.0000 -14264.7271 2473.8657 0.0000 0.0000 173.5282 -11617.3332 29.7018 -11790.8614 -11617.0282 29.7018 -70.4084 -14.0187 28627.3127 -70.4084 -14.0187
ENERGY: 200000 0.0000 0.0000 0.0000 0.0000 -14240.3522 2526.9566 0.0000 0.0000 344.0623 -11369.3333 58.8912 -11713.3956 -11369.1537 60.0164 800.7998 821.3898 28360.9235 4.3065 4.3026
TCL: Running 100000 steps at 90 kelvin.
TCL: Setting parameter langevinTemp to 90
TCL: Running for 100000 steps
ETITLE: TS BOND ANGLE DIHED IMPRP ELECT VDW BOUNDARY MISC KINETIC TOTAL TEMP POTENTIAL TOTAL3 TEMPAVG PRESSURE GPRESSURE VOLUME PRESSAVG GPRESSAVG
ENERGY: 200000 0.0000 0.0000 0.0000 0.0000 -14240.3522 2526.9566 0.0000 0.0000 343.8937 -11369.5019 58.8623 -11713.3956 -11368.8132 58.8623 766.6172 820.9469 28360.9235 766.6172 820.9469
ENERGY: 300000 0.0000 0.0000 0.0000 0.0000 -14047.1913 2409.4722 0.0000 0.0000 521.7461 -11115.9730 89.3043 -11637.7191 -11114.5709 89.8659 32.0105 65.4507 28516.2482 5.0085 5.0174
TCL: Running 100000 steps at 120 kelvin.
TCL: Setting parameter langevinTemp to 120
TCL: Running for 100000 steps
ETITLE: TS BOND ANGLE DIHED IMPRP ELECT VDW BOUNDARY MISC KINETIC TOTAL TEMP POTENTIAL TOTAL3 TEMPAVG PRESSURE GPRESSURE VOLUME PRESSAVG GPRESSAVG
ENERGY: 300000 0.0000 0.0000 0.0000 0.0000 -14047.1913 2409.4722 0.0000 0.0000 521.4831 -11116.2360 89.2593 -11637.7191 -11115.0704 89.2593 11.8010 65.1902 28516.2482 11.8010 65.1902
ENERGY: 400000 0.0000 0.0000 0.0000 0.0000 -13923.7038 2424.1436 0.0000 0.0000 690.5248 -10809.0354 118.1932 -11499.5602 -10807.0273 119.8119 774.8898 842.1718 28467.8458 3.0661 3.1064
TCL: Running 100000 steps at 150 kelvin.
TCL: Setting parameter langevinTemp to 150
TCL: Running for 100000 steps
ETITLE: TS BOND ANGLE DIHED IMPRP ELECT VDW BOUNDARY MISC KINETIC TOTAL TEMP POTENTIAL TOTAL3 TEMPAVG PRESSURE GPRESSURE VOLUME PRESSAVG GPRESSAVG
ENERGY: 400000 0.0000 0.0000 0.0000 0.0000 -13923.7038 2424.1436 0.0000 0.0000 690.1654 -10809.3948 118.1316 -11499.5602 -10808.2120 118.1316 776.4738 842.9780 28467.8458 776.4738 842.9780
ENERGY: 500000 0.0000 0.0000 0.0000 0.0000 -13653.4843 2347.8947 0.0000 0.0000 857.6420 -10447.9477 146.7977 -11305.5897 -10446.8511 150.0790 481.7665 556.8181 29080.1201 4.1188 4.1095
TCL: Running 100000 steps at 180 kelvin.
TCL: Setting parameter langevinTemp to 180
TCL: Running for 100000 steps
ETITLE: TS BOND ANGLE DIHED IMPRP ELECT VDW BOUNDARY MISC KINETIC TOTAL TEMP POTENTIAL TOTAL3 TEMPAVG PRESSURE GPRESSURE VOLUME PRESSAVG GPRESSAVG
ENERGY: 500000 0.0000 0.0000 0.0000 0.0000 -13653.4843 2347.8947 0.0000 0.0000 857.2090 -10448.3807 146.7235 -11305.5897 -10446.6304 146.7235 494.4968 555.7547 29080.1201 494.4968 555.7547
ENERGY: 600000 0.0000 0.0000 0.0000 0.0000 -13241.6033 2170.0685 0.0000 0.0000 1027.8193 -10043.7156 175.9259 -11071.5349 -10042.2672 179.4879 46.9842 145.0136 28857.9804 3.8388 3.8343
TCL: Running 100000 steps at 210 kelvin.
TCL: Setting parameter langevinTemp to 210
TCL: Running for 100000 steps
ETITLE: TS BOND ANGLE DIHED IMPRP ELECT VDW BOUNDARY MISC KINETIC TOTAL TEMP POTENTIAL TOTAL3 TEMPAVG PRESSURE GPRESSURE VOLUME PRESSAVG GPRESSAVG
ENERGY: 600000 0.0000 0.0000 0.0000 0.0000 -13241.6033 2170.0685 0.0000 0.0000 1027.3064 -10044.2284 175.8381 -11071.5349 -10042.6260 175.8381 89.8992 144.6741 28857.9804 89.8992 144.6741
ENERGY: 700000 0.0000 0.0000 0.0000 0.0000 -12316.4851 1801.0240 0.0000 0.0000 1224.6414 -9290.8197 209.6148 -10515.4611 -9288.9530 209.9712 -803.6349 -719.0124 28965.6071 4.3295 4.3104
TCL: Running 100000 steps at 240 kelvin.
TCL: Setting parameter langevinTemp to 240
TCL: Running for 100000 steps
ETITLE: TS BOND ANGLE DIHED IMPRP ELECT VDW BOUNDARY MISC KINETIC TOTAL TEMP POTENTIAL TOTAL3 TEMPAVG PRESSURE GPRESSURE VOLUME PRESSAVG GPRESSAVG
ENERGY: 700000 0.0000 0.0000 0.0000 0.0000 -12316.4851 1801.0240 0.0000 0.0000 1224.0382 -9291.4229 209.5116 -10515.4611 -9288.6879 209.5116 -785.5698 -719.6746 28965.6071 -785.5698 -719.6746
ENERGY: 800000 0.0000 0.0000 0.0000 0.0000 -11709.2654 1604.7534 0.0000 0.0000 1452.5647 -8651.9473 248.6271 -10104.5120 -8648.8561 240.1167 -867.1524 -823.5415 29236.0731 3.8271 3.7711
TCL: Running 100000 steps at 270 kelvin.
TCL: Setting parameter langevinTemp to 270
TCL: Running for 100000 steps
ETITLE: TS BOND ANGLE DIHED IMPRP ELECT VDW BOUNDARY MISC KINETIC TOTAL TEMP POTENTIAL TOTAL3 TEMPAVG PRESSURE GPRESSURE VOLUME PRESSAVG GPRESSAVG
ENERGY: 800000 0.0000 0.0000 0.0000 0.0000 -11709.2654 1604.7534 0.0000 0.0000 1451.8665 -8652.6455 248.5076 -10104.5120 -8649.8160 248.5076 -904.8443 -823.6350 29236.0731 -904.8443 -823.6350
ENERGY: 900000 0.0000 0.0000 0.0000 0.0000 -11242.6171 1572.1387 0.0000 0.0000 1578.2097 -8092.2687 270.1331 -9670.4785 -8088.1916 269.8605 143.8699 247.4598 29368.9189 3.4731 3.4104
TCL: Running 1000000 steps at 300 kelvin.
TCL: Setting parameter langevinTemp to 300
TCL: Running for 1000000 steps
ETITLE: TS BOND ANGLE DIHED IMPRP ELECT VDW BOUNDARY MISC KINETIC TOTAL TEMP POTENTIAL TOTAL3 TEMPAVG PRESSURE GPRESSURE VOLUME PRESSAVG GPRESSAVG
ENERGY: 900000 0.0000 0.0000 0.0000 0.0000 -11242.6171 1572.1387 0.0000 0.0000 1577.4231 -8093.0554 269.9984 -9670.4785 -8090.3708 269.9984 154.3255 246.1656 29368.9189 154.3255 246.1656
ENERGY: 1100000 0.0000 0.0000 0.0000 0.0000 -10708.1020 1459.5319 0.0000 0.0000 1799.1158 -7449.4544 307.9443 -9248.5701 -7446.6895 300.0924 156.9891 285.5316 30390.3705 2.9931 2.8682
ENERGY: 1300000 0.0000 0.0000 0.0000 0.0000 -10712.6064 1452.3352 0.0000 0.0000 1783.5440 -7476.7271 305.2790 -9260.2711 -7473.7882 300.5193 104.0594 247.8553 30457.6562 2.8597 2.6962
ENERGY: 1500000 0.0000 0.0000 0.0000 0.0000 -10786.3569 1531.3725 0.0000 0.0000 1740.4120 -7514.5725 297.8963 -9254.9845 -7513.3164 300.3875 815.3880 821.9334 30467.3491 3.6759 3.5914
ENERGY: 1700000 0.0000 0.0000 0.0000 0.0000 -10648.8565 1380.7901 0.0000 0.0000 1779.9974 -7488.0690 304.6719 -9268.0664 -7484.6208 300.3845 -539.4265 -433.2829 30516.7954 3.6095 3.3800
ENERGY: 1900000 0.0000 0.0000 0.0000 0.0000 -10737.6070 1418.6560 0.0000 0.0000 1787.2014 -7531.7496 305.9050 -9318.9510 -7529.8985 300.5414 -352.0323 -264.6318 30627.3570 2.1106 2.2608
TCL: Exiting due to exit command.
