Info: SIMULATION PARAMETERS:
Info: TIMESTEP               2
Info: NUMBER OF STEPS        0
Info: STEPS PER CYCLE        10
Info: PERIODIC CELL BASIS 1  41.123 0 0
Info: PERIODIC CELL BASIS 2  0 36.451 0
Info: PERIODIC CELL BASIS 3  0 0 30.222
Info: PERIODIC CELL CENTER   0 0 0
Info: WRAPPING WATERS AROUND PERIODIC BOUNDARIES ON OUTPUT.
Info: WRAPPING ALL CLUSTERS AROUND PERIODIC BOUNDARIES ON OUTPUT.
Info: FIRST LDB TIMESTEP     50
Info: LAST LDB TIMESTEP     -1
Info: HOM BACKGROUND SCALING 1
Info: PME BACKGROUND SCALING 1
Info: MIN ATOMS PER PATCH    40
Info: EMPTY PATCH LOAD       40 ATOMS
Info: INITIAL TEMPERATURE    300
Info: CENTER OF MASS MOVING INITIALLY? NO
Info: DIELECTRIC             1
Info: EXCLUDE                SCALED ONE-FOUR
Info: 1-4 ELECTROSTATICS SCALED BY 0.833333
Info: MODIFIED 1-4 VDW PARAMETERS WILL BE USED
Info: DCD FILENAME           mobley_3976574_equil.dcd
Info: DCD FREQUENCY          100000
Info: DCD FIRST STEP         100000
Info: DCD FILE WILL CONTAIN UNIT CELL DATA
Info: XST FILENAME           mobley_3976574_equil.xst
Info: XST FREQUENCY          100000
Info: NO VELOCITY DCD OUTPUT
Info: NO FORCE DCD OUTPUT
Info: OUTPUT FILENAME        mobley_3976574_equil
Info: BINARY OUTPUT FILES WILL BE USED
Info: RESTART FILENAME       mobley_3976574_equil.restart
Info: RESTART FREQUENCY      100000
Info: BINARY RESTART FILES WILL BE USED
Info: CUTOFF                 9
Info: PAIRLIST DISTANCE      11
Info: PAIRLIST SHRINK RATE   0.01
Info: PAIRLIST GROW RATE     0.01
Info: PAIRLIST TRIGGER       0.3
Info: PAIRLISTS PER CYCLE    2
Info: PAIRLISTS ENABLED
Info: MARGIN                 8
Info: HYDROGEN GROUP CUTOFF  2.5
Info: PATCH DIMENSION        21.5
Info: ENERGY OUTPUT STEPS    100000
Info: ENERGY EVALUATION STEPS    100000
Info: OUTPUT ENERGY PRECISION 4
Info: CROSSTERM ENERGY INCLUDED IN DIHEDRAL
Info: TIMING OUTPUT STEPS    1000000
Info: PRESSURE OUTPUT STEPS  100000
Info: FIXED ATOMS ACTIVE
Info: LANGEVIN DYNAMICS ACTIVE
Info: LANGEVIN TEMPERATURE   30
Info: LANGEVIN USING BBK INTEGRATOR
Info: LANGEVIN DAMPING COEFFICIENT IS 1 INVERSE PS
Info: LANGEVIN DYNAMICS APPLIED TO HYDROGENS
Info: LANGEVIN PISTON PRESSURE CONTROL ACTIVE
Info:        TARGET PRESSURE IS 1.01325 BAR
Info:     OSCILLATION PERIOD IS 50 FS
Info:             DECAY TIME IS 25 FS
Info:     PISTON TEMPERATURE IS 300 K
Info:       PRESSURE CONTROL IS GROUP-BASED
Info:    INITIAL STRAIN RATE IS 0 0 0
Info:       CELL FLUCTUATION IS ISOTROPIC
Info: PARTICLE MESH EWALD (PME) ACTIVE
Info: PME TOLERANCE               1e-06
Info: PME EWALD COEFFICIENT       0.348832
Info: PME INTERPOLATION ORDER     4
Info: PME GRID DIMENSIONS         44 40 32
Info: PME MAXIMUM GRID SPACING    1
Info: FULL ELECTROSTATIC EVALUATION FREQUENCY      2
Info: USING VERLET I (r-RESPA) MTS SCHEME.
Info: C1 SPLITTING OF LONG RANGE ELECTROSTATICS
Info: PLACING ATOMS IN PATCHES BY HYDROGEN GROUPS
Info: RIGID BONDS TO HYDROGEN : ALL
Info:         ERROR TOLERANCE : 1e-08
Info:          MAX ITERATIONS : 100
Info: RIGID WATER USING SETTLE ALGORITHM
Info: RANDOM NUMBER SEED     1743764318
Info: USE HYDROGEN BONDS?    NO
Info: Using AMBER format force field!
Info: AMBER PARM FILE        mobley_3976574.prmtop
Info: COORDINATE PDB         mobley_3976574.pdb
Info: Exclusions will be read from PARM file!
Info: SCNB (VDW SCALING)     2
Info: USING ARITHMETIC MEAN TO COMBINE L-J SIGMA PARAMETERS
Info: BINARY COORDINATES     mobley_3976574_min.coor
Info: SUMMARY OF PARAMETERS:
Info: 6 BONDS
Info: 5 ANGLES
Info:   5 HARMONIC
Info:   0 COSINE-BASED
Info: 3 DIHEDRAL
Info: 0 IMPROPER
Info: 0 CROSSTERM
Info: 0 VDW
Info: 21 VDW_PAIRS
Info: 0 NBTHOLE_PAIRS
Info: STRUCTURE SUMMARY:
Info: 2950 ATOMS
Info: 2952 BONDS
Info: 38 ANGLES
Info: 68 DIHEDRALS
Info: 0 IMPROPERS
Info: 0 CROSSTERMS
Info: 3037 EXCLUSIONS
Info: 22 FIXED ATOMS
Info: 2931 RIGID BONDS
Info: 3 RIGID BONDS BETWEEN FIXED ATOMS
Info: 5856 DEGREES OF FREEDOM
Info: 995 HYDROGEN GROUPS
Info: 3 ATOMS IN LARGEST HYDROGEN GROUP
Info: 995 MIGRATION GROUPS
Info: 3 ATOMS IN LARGEST MIGRATION GROUP
Info: 19 HYDROGEN GROUPS WITH ALL ATOMS FIXED
Info: TOTAL MASS = 17940 amu
Info: TOTAL CHARGE = -9.99793e-05 e
Info: MASS DENSITY = 0.657604 g/cm^3
Info: ATOM DENSITY = 0.0651185 atoms/A^3
Info: ADDED 0 IMPLICIT EXCLUSIONS
Info: NONBONDED TABLE R-SQUARED SPACING: 0.0625
Info: NONBONDED TABLE SIZE: 705 POINTS
Info: REMOVING COM VELOCITY -0.0320409 0.0296364 -0.247121
TCL: Running for 100000 steps
ETITLE: TS BOND ANGLE DIHED IMPRP ELECT VDW BOUNDARY MISC KINETIC TOTAL TEMP POTENTIAL TOTAL3 TEMPAVG PRESSURE GPRESSURE VOLUME PRESSAVG GPRESSAVG
ENERGY: 0 0.0000 0.0000 0.0000 0.0000 -13522.6092 2379.9115 0.0000 0.0000 1746.3818 -9396.3158 300.1432 -11142.6976 -9395.9553 300.1432 500.0830 530.2248 45302.0065 500.0830 530.2248
ENERGY: 100000 0.0000 0.0000 0.0000 0.0000 -14161.3785 2476.5652 0.0000 0.0000 175.1556 -11509.6577 30.1032 -11684.8133 -11509.5588 30.9160 259.9846 318.6203 29408.8890 3.9217 3.9264
TCL: Running 100000 steps at 60 kelvin.
TCL: Setting parameter langevinTemp to 60
TCL: Running for 100000 steps
ETITLE: TS BOND ANGLE DIHED IMPRP ELECT VDW BOUNDARY MISC KINETIC TOTAL TEMP POTENTIAL TOTAL3 TEMPAVG PRESSURE GPRESSURE VOLUME PRESSAVG GPRESSAVG
ENERGY: 100000 0.0000 0.0000 0.0000 0.0000 -14161.3785 2476.5652 0.0000 0.0000 175.0682 -11509.7451 30.0882 -11684.8133 -11509.4516 30.0882 264.5475 318.4449 29408.8890 264.5475 318.4449
ENERGY: 200000 0.0000 0.0000 0.0000 0.0000 -14011.4231 2377.3498 0.0000 0.0000 356.6367 -11277.4366 61.2936 -11634.0733 -11275.9872 59.9444 -257.3758 -194.5660 29250.4443 4.9013 4.8934
TCL: Running 100000 steps at 90 kelvin.
TCL: Setting parameter langevinTemp to 90
TCL: Running for 100000 steps
ETITLE: TS BOND ANGLE DIHED IMPRP ELECT VDW BOUNDARY MISC KINETIC TOTAL TEMP POTENTIAL TOTAL3 TEMPAVG PRESSURE GPRESSURE VOLUME PRESSAVG GPRESSAVG
ENERGY: 200000 0.0000 0.0000 0.0000 0.0000 -14011.4231 2377.3498 0.0000 0.0000 356.4659 -11277.6074 61.2643 -11634.0733 -11276.8983 61.2643 -250.5664 -193.8909 29250.4443 -250.5664 -193.8909
ENERGY: 300000 0.0000 0.0000 0.0000 0.0000 -13972.1222 2427.5796 0.0000 0.0000 528.5382 -11016.0044 90.8376 -11544.5426 -11014.7830 89.8632 645.1007 726.4247 28722.3619 3.7296 3.7952
TCL: Running 100000 steps at 120 kelvin.
TCL: Setting parameter langevinTemp to 120
TCL: Running for 100000 steps
ETITLE: TS BOND ANGLE DIHED IMPRP ELECT VDW BOUNDARY MISC KINETIC TOTAL TEMP POTENTIAL TOTAL3 TEMPAVG PRESSURE GPRESSURE VOLUME PRESSAVG GPRESSAVG
ENERGY: 300000 0.0000 0.0000 0.0000 0.0000 -13972.1222 2427.5796 0.0000 0.0000 528.2764 -11016.2662 90.7926 -11544.5426 -11015.2347 90.7926 669.9535 726.3130 28722.3619 669.9535 726.3130
ENERGY: 400000 0.0000 0.0000 0.0000 0.0000 -13776.8452 2338.0256 0.0000 0.0000 712.1508 -10726.6688 122.3943 -11438.8196 -10725.6465 120.1680 340.8134 385.4757 28787.3986 2.9514 3.0164
TCL: Running 100000 steps at 150 kelvin.
TCL: Setting parameter langevinTemp to 150
TCL: Running for 100000 steps
ETITLE: TS BOND ANGLE DIHED IMPRP ELECT VDW BOUNDARY MISC KINETIC TOTAL TEMP POTENTIAL TOTAL3 TEMPAVG PRESSURE GPRESSURE VOLUME PRESSAVG GPRESSAVG
ENERGY: 400000 0.0000 0.0000 0.0000 0.0000 -13776.8452 2338.0256 0.0000 0.0000 711.8058 -10727.0138 122.3350 -11438.8196 -10725.7050 122.3350 323.0476 384.9701 28787.3986 323.0476 384.9701
ENERGY: 500000 0.0000 0.0000 0.0000 0.0000 -13431.0229 2152.0970 0.0000 0.0000 862.1061 -10416.8199 148.1665 -11278.9260 -10414.1358 150.2307 -682.6482 -654.4604 28982.6373 4.4187 4.4187
TCL: Running 100000 steps at 180 kelvin.
TCL: Setting parameter langevinTemp to 180
TCL: Running for 100000 steps
ETITLE: TS BOND ANGLE DIHED IMPRP ELECT VDW BOUNDARY MISC KINETIC TOTAL TEMP POTENTIAL TOTAL3 TEMPAVG PRESSURE GPRESSURE VOLUME PRESSAVG GPRESSAVG
ENERGY: 500000 0.0000 0.0000 0.0000 0.0000 -13431.0229 2152.0970 0.0000 0.0000 861.6627 -10417.2633 148.0903 -11278.9260 -10415.4595 148.0903 -706.2739 -653.6982 28982.6373 -706.2739 -653.6982
ENERGY: 600000 0.0000 0.0000 0.0000 0.0000 -13052.3981 2041.0439 0.0000 0.0000 1059.7816 -9951.5725 182.1402 -11011.3542 -9949.3748 179.7488 -477.4399 -444.1317 28848.3032 3.7133 3.7408
TCL: Running 100000 steps at 210 kelvin.
TCL: Setting parameter langevinTemp to 210
TCL: Running for 100000 steps
ETITLE: TS BOND ANGLE DIHED IMPRP ELECT VDW BOUNDARY MISC KINETIC TOTAL TEMP POTENTIAL TOTAL3 TEMPAVG PRESSURE GPRESSURE VOLUME PRESSAVG GPRESSAVG
ENERGY: 600000 0.0000 0.0000 0.0000 0.0000 -13052.3981 2041.0439 0.0000 0.0000 1059.2682 -9952.0860 182.0519 -11011.3542 -9950.3178 182.0519 -516.2593 -443.1295 28848.3032 -516.2593 -443.1295
ENERGY: 700000 0.0000 0.0000 0.0000 0.0000 -12425.4664 1910.7178 0.0000 0.0000 1234.3809 -9280.3678 212.1478 -10514.7486 -9278.4177 209.6334 105.6327 159.4189 29140.0757 2.9729 2.9951
TCL: Running 100000 steps at 240 kelvin.
TCL: Setting parameter langevinTemp to 240
TCL: Running for 100000 steps
ETITLE: TS BOND ANGLE DIHED IMPRP ELECT VDW BOUNDARY MISC KINETIC TOTAL TEMP POTENTIAL TOTAL3 TEMPAVG PRESSURE GPRESSURE VOLUME PRESSAVG GPRESSAVG
ENERGY: 700000 0.0000 0.0000 0.0000 0.0000 -12425.4664 1910.7178 0.0000 0.0000 1233.7872 -9280.9614 212.0458 -10514.7486 -9279.0641 212.0458 70.6334 158.9780 29140.0757 70.6334 158.9780
ENERGY: 800000 0.0000 0.0000 0.0000 0.0000 -11739.3084 1650.0635 0.0000 0.0000 1405.8708 -8683.3741 241.6210 -10089.2449 -8680.5806 239.4215 -338.1365 -229.4067 28837.6871 2.6070 2.6840
TCL: Running 100000 steps at 270 kelvin.
TCL: Setting parameter langevinTemp to 270
TCL: Running for 100000 steps
ETITLE: TS BOND ANGLE DIHED IMPRP ELECT VDW BOUNDARY MISC KINETIC TOTAL TEMP POTENTIAL TOTAL3 TEMPAVG PRESSURE GPRESSURE VOLUME PRESSAVG GPRESSAVG
ENERGY: 800000 0.0000 0.0000 0.0000 0.0000 -11739.3084 1650.0635 0.0000 0.0000 1405.1662 -8684.0787 241.4999 -10089.2449 -8681.5815 241.4999 -334.2794 -228.7200 28837.6871 -334.2794 -228.7200
ENERGY: 900000 0.0000 0.0000 0.0000 0.0000 -11158.6182 1496.3180 0.0000 0.0000 1559.1362 -8103.1640 267.9621 -9662.3002 -8102.6629 269.3355 -553.5478 -467.1235 29995.3925 3.1871 3.1739
TCL: Running 1000000 steps at 300 kelvin.
TCL: Setting parameter langevinTemp to 300
TCL: Running for 1000000 steps
ETITLE: TS BOND ANGLE DIHED IMPRP ELECT VDW BOUNDARY MISC KINETIC TOTAL TEMP POTENTIAL TOTAL3 TEMPAVG PRESSURE GPRESSURE VOLUME PRESSAVG GPRESSAVG
ENERGY: 900000 0.0000 0.0000 0.0000 0.0000 -11158.6182 1496.3180 0.0000 0.0000 1558.3364 -8103.9637 267.8246 -9662.3002 -8101.6143 267.8246 -547.0118 -469.2936 29995.3925 -547.0118 -469.2936
ENERGY: 1100000 0.0000 0.0000 0.0000 0.0000 -10793.3358 1529.9396 0.0000 0.0000 1777.3634 -7486.0328 305.4679 -9263.3962 -7483.8005 299.2407 973.0432 1081.1986 30119.7072 4.0345 3.9264
ENERGY: 1300000 0.0000 0.0000 0.0000 0.0000 -10560.5465 1344.3238 0.0000 0.0000 1699.8072 -7516.4154 292.1386 -9216.2227 -7514.9248 300.5494 -643.7049 -568.5401 30853.6142 3.4418 3.1866
ENERGY: 1500000 0.0000 0.0000 0.0000 0.0000 -10607.9306 1370.6411 0.0000 0.0000 1752.0040 -7485.2856 301.1095 -9237.2896 -7483.2824 299.7547 -363.1371 -251.3338 30688.7341 2.6669 2.6279
ENERGY: 1700000 0.0000 0.0000 0.0000 0.0000 -10535.1364 1320.3807 0.0000 0.0000 1743.3282 -7471.4274 299.6184 -9214.7556 -7466.2706 299.7975 -829.5899 -681.4806 30685.2181 2.1730 2.3944
ENERGY: 1900000 0.0000 0.0000 0.0000 0.0000 -10605.2554 1357.5406 0.0000 0.0000 1747.8858 -7499.8291 300.4017 -9247.7148 -7492.9659 300.3296 -371.9738 -323.9486 30604.7301 3.9660 4.0400
TCL: Exiting due to exit command.
