Info: SIMULATION PARAMETERS:
Info: TIMESTEP               2
Info: NUMBER OF STEPS        0
Info: STEPS PER CYCLE        10
Info: PERIODIC CELL BASIS 1  36.592 0 0
Info: PERIODIC CELL BASIS 2  0 34.26 0
Info: PERIODIC CELL BASIS 3  0 0 34.68
Info: PERIODIC CELL CENTER   0 0 0
Info: WRAPPING WATERS AROUND PERIODIC BOUNDARIES ON OUTPUT.
Info: WRAPPING ALL CLUSTERS AROUND PERIODIC BOUNDARIES ON OUTPUT.
Info: FIRST LDB TIMESTEP     50
Info: LAST LDB TIMESTEP     -1
Info: HOM BACKGROUND SCALING 1
Info: PME BACKGROUND SCALING 1
Info: MIN ATOMS PER PATCH    40
Info: EMPTY PATCH LOAD       40 ATOMS
Info: INITIAL TEMPERATURE    300
Info: CENTER OF MASS MOVING INITIALLY? NO
Info: DIELECTRIC             1
Info: EXCLUDE                SCALED ONE-FOUR
Info: 1-4 ELECTROSTATICS SCALED BY 0.833333
Info: MODIFIED 1-4 VDW PARAMETERS WILL BE USED
Info: DCD FILENAME           mobley_7099614_equil.dcd
Info: DCD FREQUENCY          100000
Info: DCD FIRST STEP         100000
Info: DCD FILE WILL CONTAIN UNIT CELL DATA
Info: XST FILENAME           mobley_7099614_equil.xst
Info: XST FREQUENCY          100000
Info: NO VELOCITY DCD OUTPUT
Info: NO FORCE DCD OUTPUT
Info: OUTPUT FILENAME        mobley_7099614_equil
Info: BINARY OUTPUT FILES WILL BE USED
Info: RESTART FILENAME       mobley_7099614_equil.restart
Info: RESTART FREQUENCY      100000
Info: BINARY RESTART FILES WILL BE USED
Info: CUTOFF                 9
Info: PAIRLIST DISTANCE      11
Info: PAIRLIST SHRINK RATE   0.01
Info: PAIRLIST GROW RATE     0.01
Info: PAIRLIST TRIGGER       0.3
Info: PAIRLISTS PER CYCLE    2
Info: PAIRLISTS ENABLED
Info: MARGIN                 8
Info: HYDROGEN GROUP CUTOFF  2.5
Info: PATCH DIMENSION        21.5
Info: ENERGY OUTPUT STEPS    100000
Info: ENERGY EVALUATION STEPS    100000
Info: OUTPUT ENERGY PRECISION 4
Info: CROSSTERM ENERGY INCLUDED IN DIHEDRAL
Info: TIMING OUTPUT STEPS    1000000
Info: PRESSURE OUTPUT STEPS  100000
Info: FIXED ATOMS ACTIVE
Info: LANGEVIN DYNAMICS ACTIVE
Info: LANGEVIN TEMPERATURE   30
Info: LANGEVIN USING BBK INTEGRATOR
Info: LANGEVIN DAMPING COEFFICIENT IS 1 INVERSE PS
Info: LANGEVIN DYNAMICS APPLIED TO HYDROGENS
Info: LANGEVIN PISTON PRESSURE CONTROL ACTIVE
Info:        TARGET PRESSURE IS 1.01325 BAR
Info:     OSCILLATION PERIOD IS 50 FS
Info:             DECAY TIME IS 25 FS
Info:     PISTON TEMPERATURE IS 300 K
Info:       PRESSURE CONTROL IS GROUP-BASED
Info:    INITIAL STRAIN RATE IS 0 0 0
Info:       CELL FLUCTUATION IS ISOTROPIC
Info: PARTICLE MESH EWALD (PME) ACTIVE
Info: PME TOLERANCE               1e-06
Info: PME EWALD COEFFICIENT       0.348832
Info: PME INTERPOLATION ORDER     4
Info: PME GRID DIMENSIONS         40 36 36
Info: PME MAXIMUM GRID SPACING    1
Info: FULL ELECTROSTATIC EVALUATION FREQUENCY      2
Info: USING VERLET I (r-RESPA) MTS SCHEME.
Info: C1 SPLITTING OF LONG RANGE ELECTROSTATICS
Info: PLACING ATOMS IN PATCHES BY HYDROGEN GROUPS
Info: RIGID BONDS TO HYDROGEN : ALL
Info:         ERROR TOLERANCE : 1e-08
Info:          MAX ITERATIONS : 100
Info: RIGID WATER USING SETTLE ALGORITHM
Info: RANDOM NUMBER SEED     1743900578
Info: USE HYDROGEN BONDS?    NO
Info: Using AMBER format force field!
Info: AMBER PARM FILE        mobley_7099614.prmtop
Info: COORDINATE PDB         mobley_7099614.pdb
Info: Exclusions will be read from PARM file!
Info: SCNB (VDW SCALING)     2
Info: USING ARITHMETIC MEAN TO COMBINE L-J SIGMA PARAMETERS
Info: BINARY COORDINATES     mobley_7099614_min.coor
Info: SUMMARY OF PARAMETERS:
Info: 7 BONDS
Info: 8 ANGLES
Info: 3 DIHEDRAL
Info: 0 IMPROPER
Info: 0 CROSSTERM
Info: 0 VDW
Info: 28 VDW_PAIRS
Info: 0 NBTHOLE_PAIRS
Info: STRUCTURE SUMMARY:
Info: 2934 ATOMS
Info: 2933 BONDS
Info: 12 ANGLES
Info: 12 DIHEDRALS
Info: 0 IMPROPERS
Info: 0 CROSSTERMS
Info: 2955 EXCLUSIONS
Info: 9 FIXED ATOMS
Info: 2930 RIGID BONDS
Info: 5 RIGID BONDS BETWEEN FIXED ATOMS
Info: 5850 DEGREES OF FREEDOM
Info: 979 HYDROGEN GROUPS
Info: 3 ATOMS IN LARGEST HYDROGEN GROUP
Info: 979 MIGRATION GROUPS
Info: 3 ATOMS IN LARGEST MIGRATION GROUP
Info: 4 HYDROGEN GROUPS WITH ALL ATOMS FIXED
Info: TOTAL MASS = 17642.1 amu
Info: TOTAL CHARGE = -7.45058e-09 e
Info: MASS DENSITY = 0.673841 g/cm^3
Info: ATOM DENSITY = 0.067485 atoms/A^3
Info: ADDED 0 IMPLICIT EXCLUSIONS
Info: NONBONDED TABLE R-SQUARED SPACING: 0.0625
Info: NONBONDED TABLE SIZE: 705 POINTS
Info: REMOVING COM VELOCITY -0.0681729 0.0159417 -0.115921
TCL: Running for 100000 steps
ETITLE: TS BOND ANGLE DIHED IMPRP ELECT VDW BOUNDARY MISC KINETIC TOTAL TEMP POTENTIAL TOTAL3 TEMPAVG PRESSURE GPRESSURE VOLUME PRESSAVG GPRESSAVG
ENERGY: 0 0.0000 0.0000 0.0000 0.0000 -13493.8952 2348.3775 0.0000 0.0000 1701.4441 -9444.0736 292.7199 -11145.5177 -9443.7529 292.7199 378.5848 414.2127 43476.3018 378.5848 414.2127
ENERGY: 100000 0.0000 0.0000 0.0000 0.0000 -14017.1458 2360.4203 0.0000 0.0000 177.2512 -11479.4744 30.4947 -11656.7256 -11479.0795 30.8711 -658.7343 -596.3703 29613.5465 4.8988 4.8257
TCL: Running 100000 steps at 60 kelvin.
TCL: Setting parameter langevinTemp to 60
TCL: Running for 100000 steps
ETITLE: TS BOND ANGLE DIHED IMPRP ELECT VDW BOUNDARY MISC KINETIC TOTAL TEMP POTENTIAL TOTAL3 TEMPAVG PRESSURE GPRESSURE VOLUME PRESSAVG GPRESSAVG
ENERGY: 100000 0.0000 0.0000 0.0000 0.0000 -14017.1458 2360.4203 0.0000 0.0000 177.1654 -11479.5601 30.4799 -11656.7256 -11479.2089 30.4799 -649.3090 -596.5023 29613.5465 -649.3090 -596.5023
ENERGY: 200000 0.0000 0.0000 0.0000 0.0000 -13999.1435 2395.4938 0.0000 0.0000 340.2320 -11263.4176 58.5342 -11603.6497 -11262.2723 59.9982 -239.4790 -202.3163 29423.2669 4.1087 4.1008
TCL: Running 100000 steps at 90 kelvin.
TCL: Setting parameter langevinTemp to 90
TCL: Running for 100000 steps
ETITLE: TS BOND ANGLE DIHED IMPRP ELECT VDW BOUNDARY MISC KINETIC TOTAL TEMP POTENTIAL TOTAL3 TEMPAVG PRESSURE GPRESSURE VOLUME PRESSAVG GPRESSAVG
ENERGY: 200000 0.0000 0.0000 0.0000 0.0000 -13999.1435 2395.4938 0.0000 0.0000 340.0622 -11263.5874 58.5050 -11603.6497 -11262.9344 58.5050 -240.5327 -202.0168 29423.2669 -240.5327 -202.0168
ENERGY: 300000 0.0000 0.0000 0.0000 0.0000 -13872.7338 2386.3523 0.0000 0.0000 521.8060 -10964.5754 89.7726 -11486.3814 -10963.1934 90.1163 48.2852 88.2365 29208.2347 4.6619 4.6956
TCL: Running 100000 steps at 120 kelvin.
TCL: Setting parameter langevinTemp to 120
TCL: Running for 100000 steps
ETITLE: TS BOND ANGLE DIHED IMPRP ELECT VDW BOUNDARY MISC KINETIC TOTAL TEMP POTENTIAL TOTAL3 TEMPAVG PRESSURE GPRESSURE VOLUME PRESSAVG GPRESSAVG
ENERGY: 300000 0.0000 0.0000 0.0000 0.0000 -13872.7338 2386.3523 0.0000 0.0000 521.5342 -10964.8473 89.7258 -11486.3814 -10963.9459 89.7258 44.3330 88.6804 29208.2347 44.3330 88.6804
ENERGY: 400000 0.0000 0.0000 0.0000 0.0000 -13707.3074 2333.9088 0.0000 0.0000 700.6778 -10672.7208 120.5460 -11373.3986 -10670.5360 120.0077 174.5485 220.4318 28748.5753 3.4605 3.5915
TCL: Running 100000 steps at 150 kelvin.
TCL: Setting parameter langevinTemp to 150
TCL: Running for 100000 steps
ETITLE: TS BOND ANGLE DIHED IMPRP ELECT VDW BOUNDARY MISC KINETIC TOTAL TEMP POTENTIAL TOTAL3 TEMPAVG PRESSURE GPRESSURE VOLUME PRESSAVG GPRESSAVG
ENERGY: 400000 0.0000 0.0000 0.0000 0.0000 -13707.3074 2333.9088 0.0000 0.0000 700.3235 -10673.0750 120.4851 -11373.3986 -10671.7021 120.4851 148.6257 220.3109 28748.5753 148.6257 220.3109
ENERGY: 500000 0.0000 0.0000 0.0000 0.0000 -13457.1563 2256.6878 0.0000 0.0000 874.9049 -10325.5637 150.5204 -11200.4685 -10322.5637 149.7137 32.1650 87.6924 28986.0734 3.7888 3.8051
TCL: Running 100000 steps at 180 kelvin.
TCL: Setting parameter langevinTemp to 180
TCL: Running for 100000 steps
ETITLE: TS BOND ANGLE DIHED IMPRP ELECT VDW BOUNDARY MISC KINETIC TOTAL TEMP POTENTIAL TOTAL3 TEMPAVG PRESSURE GPRESSURE VOLUME PRESSAVG GPRESSAVG
ENERGY: 500000 0.0000 0.0000 0.0000 0.0000 -13457.1563 2256.6878 0.0000 0.0000 874.4743 -10325.9942 150.4463 -11200.4685 -10324.3668 150.4463 49.8598 89.5922 28986.0734 49.8598 89.5922
ENERGY: 600000 0.0000 0.0000 0.0000 0.0000 -13204.5295 2200.2895 0.0000 0.0000 1034.4466 -9969.7935 177.9683 -11004.2401 -9966.4347 179.8218 605.8133 640.2370 28651.8020 3.5630 3.6722
TCL: Running 100000 steps at 210 kelvin.
TCL: Setting parameter langevinTemp to 210
TCL: Running for 100000 steps
ETITLE: TS BOND ANGLE DIHED IMPRP ELECT VDW BOUNDARY MISC KINETIC TOTAL TEMP POTENTIAL TOTAL3 TEMPAVG PRESSURE GPRESSURE VOLUME PRESSAVG GPRESSAVG
ENERGY: 600000 0.0000 0.0000 0.0000 0.0000 -13204.5295 2200.2895 0.0000 0.0000 1033.9165 -9970.3236 177.8771 -11004.2401 -9969.0171 177.8771 580.1792 640.7388 28651.8020 580.1792 640.7388
ENERGY: 700000 0.0000 0.0000 0.0000 0.0000 -12426.0573 1917.9486 0.0000 0.0000 1195.4272 -9312.6815 205.6637 -10508.1087 -9311.0074 210.0173 411.3448 461.0847 28254.2030 4.8025 4.6745
TCL: Running 100000 steps at 240 kelvin.
TCL: Setting parameter langevinTemp to 240
TCL: Running for 100000 steps
ETITLE: TS BOND ANGLE DIHED IMPRP ELECT VDW BOUNDARY MISC KINETIC TOTAL TEMP POTENTIAL TOTAL3 TEMPAVG PRESSURE GPRESSURE VOLUME PRESSAVG GPRESSAVG
ENERGY: 700000 0.0000 0.0000 0.0000 0.0000 -12426.0573 1917.9486 0.0000 0.0000 1194.8274 -9313.2813 205.5605 -10508.1087 -9311.1861 205.5605 385.0952 460.3453 28254.2030 385.0952 460.3453
ENERGY: 800000 0.0000 0.0000 0.0000 0.0000 -11848.5157 1770.6966 0.0000 0.0000 1380.8853 -8696.9338 237.5703 -10077.8191 -8695.0635 240.0875 288.9323 366.4781 28872.8484 2.2027 2.1209
TCL: Running 100000 steps at 270 kelvin.
TCL: Setting parameter langevinTemp to 270
TCL: Running for 100000 steps
ETITLE: TS BOND ANGLE DIHED IMPRP ELECT VDW BOUNDARY MISC KINETIC TOTAL TEMP POTENTIAL TOTAL3 TEMPAVG PRESSURE GPRESSURE VOLUME PRESSAVG GPRESSAVG
ENERGY: 800000 0.0000 0.0000 0.0000 0.0000 -11848.5157 1770.6966 0.0000 0.0000 1380.1569 -8697.6622 237.4450 -10077.8191 -8695.2580 237.4450 296.0993 365.1945 28872.8484 296.0993 365.1945
ENERGY: 900000 0.0000 0.0000 0.0000 0.0000 -11180.3630 1567.1779 0.0000 0.0000 1563.0526 -8050.1325 268.9107 -9613.1850 -8046.4908 270.4317 34.4706 106.6194 29696.6298 3.6862 3.5239
TCL: Running 1000000 steps at 300 kelvin.
TCL: Setting parameter langevinTemp to 300
TCL: Running for 1000000 steps
ETITLE: TS BOND ANGLE DIHED IMPRP ELECT VDW BOUNDARY MISC KINETIC TOTAL TEMP POTENTIAL TOTAL3 TEMPAVG PRESSURE GPRESSURE VOLUME PRESSAVG GPRESSAVG
ENERGY: 900000 0.0000 0.0000 0.0000 0.0000 -11180.3630 1567.1779 0.0000 0.0000 1562.2727 -8050.9123 268.7765 -9613.1850 -8048.6554 268.7765 26.4510 106.6686 29696.6298 26.4510 106.6686
ENERGY: 1100000 0.0000 0.0000 0.0000 0.0000 -10793.9869 1560.8684 0.0000 0.0000 1724.8180 -7508.3005 296.7412 -9233.1185 -7504.5382 300.9277 856.4180 925.7020 30210.5415 3.3181 3.1826
ENERGY: 1300000 0.0000 0.0000 0.0000 0.0000 -10579.3466 1426.0527 0.0000 0.0000 1759.3140 -7393.9799 302.6759 -9153.2939 -7390.8271 300.5043 102.2272 188.3396 30212.2532 2.9630 2.9455
ENERGY: 1500000 0.0000 0.0000 0.0000 0.0000 -10706.1031 1508.3166 0.0000 0.0000 1766.1411 -7431.6454 303.8505 -9197.7865 -7430.1322 300.2844 649.5423 723.0871 30438.9779 4.5786 4.4252
ENERGY: 1700000 0.0000 0.0000 0.0000 0.0000 -10583.0849 1362.3042 0.0000 0.0000 1782.5186 -7438.2622 306.6681 -9220.7808 -7434.3297 300.7174 -459.7145 -380.1431 30139.8962 3.8500 3.9399
ENERGY: 1900000 0.0000 0.0000 0.0000 0.0000 -10749.4630 1454.5109 0.0000 0.0000 1793.6876 -7501.2645 308.5896 -9294.9521 -7500.6706 300.0979 116.5038 217.5274 29999.4211 2.2928 2.4680
TCL: Exiting due to exit command.
