Info: SIMULATION PARAMETERS:
Info: TIMESTEP               2
Info: NUMBER OF STEPS        0
Info: STEPS PER CYCLE        10
Info: PERIODIC CELL BASIS 1  36.592 0 0
Info: PERIODIC CELL BASIS 2  0 35.411 0
Info: PERIODIC CELL BASIS 3  0 0 34.229
Info: PERIODIC CELL CENTER   0 0 0
Info: WRAPPING WATERS AROUND PERIODIC BOUNDARIES ON OUTPUT.
Info: WRAPPING ALL CLUSTERS AROUND PERIODIC BOUNDARIES ON OUTPUT.
Info: FIRST LDB TIMESTEP     50
Info: LAST LDB TIMESTEP     -1
Info: HOM BACKGROUND SCALING 1
Info: PME BACKGROUND SCALING 1
Info: MIN ATOMS PER PATCH    40
Info: EMPTY PATCH LOAD       40 ATOMS
Info: INITIAL TEMPERATURE    300
Info: CENTER OF MASS MOVING INITIALLY? NO
Info: DIELECTRIC             1
Info: EXCLUDE                SCALED ONE-FOUR
Info: 1-4 ELECTROSTATICS SCALED BY 0.833333
Info: MODIFIED 1-4 VDW PARAMETERS WILL BE USED
Info: DCD FILENAME           mobley_1328465_equil.dcd
Info: DCD FREQUENCY          100000
Info: DCD FIRST STEP         100000
Info: DCD FILE WILL CONTAIN UNIT CELL DATA
Info: XST FILENAME           mobley_1328465_equil.xst
Info: XST FREQUENCY          100000
Info: NO VELOCITY DCD OUTPUT
Info: NO FORCE DCD OUTPUT
Info: OUTPUT FILENAME        mobley_1328465_equil
Info: BINARY OUTPUT FILES WILL BE USED
Info: RESTART FILENAME       mobley_1328465_equil.restart
Info: RESTART FREQUENCY      100000
Info: BINARY RESTART FILES WILL BE USED
Info: CUTOFF                 9
Info: PAIRLIST DISTANCE      11
Info: PAIRLIST SHRINK RATE   0.01
Info: PAIRLIST GROW RATE     0.01
Info: PAIRLIST TRIGGER       0.3
Info: PAIRLISTS PER CYCLE    2
Info: PAIRLISTS ENABLED
Info: MARGIN                 8
Info: HYDROGEN GROUP CUTOFF  2.5
Info: PATCH DIMENSION        21.5
Info: ENERGY OUTPUT STEPS    100000
Info: ENERGY EVALUATION STEPS    100000
Info: OUTPUT ENERGY PRECISION 4
Info: CROSSTERM ENERGY INCLUDED IN DIHEDRAL
Info: TIMING OUTPUT STEPS    1000000
Info: PRESSURE OUTPUT STEPS  100000
Info: FIXED ATOMS ACTIVE
Info: LANGEVIN DYNAMICS ACTIVE
Info: LANGEVIN TEMPERATURE   30
Info: LANGEVIN USING BBK INTEGRATOR
Info: LANGEVIN DAMPING COEFFICIENT IS 1 INVERSE PS
Info: LANGEVIN DYNAMICS APPLIED TO HYDROGENS
Info: LANGEVIN PISTON PRESSURE CONTROL ACTIVE
Info:        TARGET PRESSURE IS 1.01325 BAR
Info:     OSCILLATION PERIOD IS 50 FS
Info:             DECAY TIME IS 25 FS
Info:     PISTON TEMPERATURE IS 300 K
Info:       PRESSURE CONTROL IS GROUP-BASED
Info:    INITIAL STRAIN RATE IS 0 0 0
Info:       CELL FLUCTUATION IS ISOTROPIC
Info: PARTICLE MESH EWALD (PME) ACTIVE
Info: PME TOLERANCE               1e-06
Info: PME EWALD COEFFICIENT       0.348832
Info: PME INTERPOLATION ORDER     4
Info: PME GRID DIMENSIONS         40 36 36
Info: PME MAXIMUM GRID SPACING    1
Info: FULL ELECTROSTATIC EVALUATION FREQUENCY      2
Info: USING VERLET I (r-RESPA) MTS SCHEME.
Info: C1 SPLITTING OF LONG RANGE ELECTROSTATICS
Info: PLACING ATOMS IN PATCHES BY HYDROGEN GROUPS
Info: RIGID BONDS TO HYDROGEN : ALL
Info:         ERROR TOLERANCE : 1e-08
Info:          MAX ITERATIONS : 100
Info: RIGID WATER USING SETTLE ALGORITHM
Info: RANDOM NUMBER SEED     1744720771
Info: USE HYDROGEN BONDS?    NO
Info: Using AMBER format force field!
Info: AMBER PARM FILE        mobley_1328465.prmtop
Info: COORDINATE PDB         mobley_1328465.pdb
Info: Exclusions will be read from PARM file!
Info: SCNB (VDW SCALING)     2
Info: USING ARITHMETIC MEAN TO COMBINE L-J SIGMA PARAMETERS
Info: BINARY COORDINATES     mobley_1328465_min.coor
Info: SUMMARY OF PARAMETERS:
Info: 6 BONDS
Info: 7 ANGLES
Info:   7 HARMONIC
Info:   0 COSINE-BASED
Info: 4 DIHEDRAL
Info: 0 IMPROPER
Info: 0 CROSSTERM
Info: 0 VDW
Info: 21 VDW_PAIRS
Info: 0 NBTHOLE_PAIRS
Info: STRUCTURE SUMMARY:
Info: 2927 ATOMS
Info: 2926 BONDS
Info: 12 ANGLES
Info: 15 DIHEDRALS
Info: 0 IMPROPERS
Info: 0 CROSSTERMS
Info: 2947 EXCLUSIONS
Info: 8 FIXED ATOMS
Info: 2922 RIGID BONDS
Info: 3 RIGID BONDS BETWEEN FIXED ATOMS
Info: 5838 DEGREES OF FREEDOM
Info: 978 HYDROGEN GROUPS
Info: 3 ATOMS IN LARGEST HYDROGEN GROUP
Info: 978 MIGRATION GROUPS
Info: 3 ATOMS IN LARGEST MIGRATION GROUP
Info: 5 HYDROGEN GROUPS WITH ALL ATOMS FIXED
Info: TOTAL MASS = 17663 amu
Info: TOTAL CHARGE = -1.86265e-08 e
Info: MASS DENSITY = 0.661309 g/cm^3
Info: ATOM DENSITY = 0.065994 atoms/A^3
Info: ADDED 0 IMPLICIT EXCLUSIONS
Info: NONBONDED TABLE R-SQUARED SPACING: 0.0625
Info: NONBONDED TABLE SIZE: 705 POINTS
Info: REMOVING COM VELOCITY -0.0660105 0.119333 0.167036
TCL: Running for 100000 steps
ETITLE: TS BOND ANGLE DIHED IMPRP ELECT VDW BOUNDARY MISC KINETIC TOTAL TEMP POTENTIAL TOTAL3 TEMPAVG PRESSURE GPRESSURE VOLUME PRESSAVG GPRESSAVG
ENERGY: 0 0.0000 0.0000 0.0000 0.0000 -13585.4465 2369.0665 0.0000 0.0000 1689.1455 -9527.2344 291.2013 -11216.3799 -9526.9203 291.2013 282.3995 313.4247 44352.5455 282.3995 313.4247
ENERGY: 100000 0.0000 0.0000 0.0000 0.0000 -14225.7477 2578.8688 0.0000 0.0000 171.8393 -11475.0396 29.6243 -11646.8789 -11474.5253 30.9581 885.2815 943.8625 29226.6197 2.5803 2.4866
TCL: Running 100000 steps at 60 kelvin.
TCL: Setting parameter langevinTemp to 60
TCL: Running for 100000 steps
ETITLE: TS BOND ANGLE DIHED IMPRP ELECT VDW BOUNDARY MISC KINETIC TOTAL TEMP POTENTIAL TOTAL3 TEMPAVG PRESSURE GPRESSURE VOLUME PRESSAVG GPRESSAVG
ENERGY: 100000 0.0000 0.0000 0.0000 0.0000 -14225.7477 2578.8688 0.0000 0.0000 171.7539 -11475.1250 29.6096 -11646.8789 -11474.7539 29.6096 884.4524 943.7947 29226.6197 884.4524 943.7947
ENERGY: 200000 0.0000 0.0000 0.0000 0.0000 -13970.1605 2398.7366 0.0000 0.0000 342.9571 -11228.4668 59.1243 -11571.4239 -11227.3054 59.9213 -288.9052 -215.0461 29277.4775 3.1243 3.0876
TCL: Running 100000 steps at 90 kelvin.
TCL: Setting parameter langevinTemp to 90
TCL: Running for 100000 steps
ETITLE: TS BOND ANGLE DIHED IMPRP ELECT VDW BOUNDARY MISC KINETIC TOTAL TEMP POTENTIAL TOTAL3 TEMPAVG PRESSURE GPRESSURE VOLUME PRESSAVG GPRESSAVG
ENERGY: 200000 0.0000 0.0000 0.0000 0.0000 -13970.1605 2398.7366 0.0000 0.0000 342.7875 -11228.6364 59.0951 -11571.4239 -11228.1525 59.0951 -269.0436 -214.6981 29277.4775 -269.0436 -214.6981
ENERGY: 300000 0.0000 0.0000 0.0000 0.0000 -13780.7832 2295.6760 0.0000 0.0000 508.6292 -10976.4779 87.6855 -11485.1071 -10975.2060 89.8739 -835.7672 -778.7611 29281.2887 4.4243 4.4871
TCL: Running 100000 steps at 120 kelvin.
TCL: Setting parameter langevinTemp to 120
TCL: Running for 100000 steps
ETITLE: TS BOND ANGLE DIHED IMPRP ELECT VDW BOUNDARY MISC KINETIC TOTAL TEMP POTENTIAL TOTAL3 TEMPAVG PRESSURE GPRESSURE VOLUME PRESSAVG GPRESSAVG
ENERGY: 300000 0.0000 0.0000 0.0000 0.0000 -13780.7832 2295.6760 0.0000 0.0000 508.3706 -10976.7366 87.6409 -11485.1071 -10975.6494 87.6409 -840.7492 -778.8633 29281.2887 -840.7492 -778.8633
ENERGY: 400000 0.0000 0.0000 0.0000 0.0000 -13809.0440 2455.9838 0.0000 0.0000 679.8617 -10673.1985 117.2052 -11353.0602 -10672.3897 119.9367 1122.7993 1167.7277 28855.4657 3.9293 3.9264
TCL: Running 100000 steps at 150 kelvin.
TCL: Setting parameter langevinTemp to 150
TCL: Running for 100000 steps
ETITLE: TS BOND ANGLE DIHED IMPRP ELECT VDW BOUNDARY MISC KINETIC TOTAL TEMP POTENTIAL TOTAL3 TEMPAVG PRESSURE GPRESSURE VOLUME PRESSAVG GPRESSAVG
ENERGY: 400000 0.0000 0.0000 0.0000 0.0000 -13809.0440 2455.9838 0.0000 0.0000 679.5292 -10673.5310 117.1479 -11353.0602 -10672.4084 117.1479 1111.0275 1166.9527 28855.4657 1111.0275 1166.9527
ENERGY: 500000 0.0000 0.0000 0.0000 0.0000 -13456.8820 2218.6857 0.0000 0.0000 862.6083 -10375.5881 148.7099 -11238.1963 -10372.2268 150.1897 106.1566 75.6322 28340.4142 4.7849 4.5881
TCL: Running 100000 steps at 180 kelvin.
TCL: Setting parameter langevinTemp to 180
TCL: Running for 100000 steps
ETITLE: TS BOND ANGLE DIHED IMPRP ELECT VDW BOUNDARY MISC KINETIC TOTAL TEMP POTENTIAL TOTAL3 TEMPAVG PRESSURE GPRESSURE VOLUME PRESSAVG GPRESSAVG
ENERGY: 500000 0.0000 0.0000 0.0000 0.0000 -13456.8820 2218.6857 0.0000 0.0000 862.1667 -10376.0296 148.6338 -11238.1963 -10374.5978 148.6338 18.9739 77.0028 28340.4142 18.9739 77.0028
ENERGY: 600000 0.0000 0.0000 0.0000 0.0000 -13025.3838 2125.1889 0.0000 0.0000 1027.4348 -9872.7601 177.1253 -10900.1949 -9871.0006 180.2450 539.6252 605.1642 28268.7712 5.5306 5.6158
TCL: Running 100000 steps at 210 kelvin.
TCL: Setting parameter langevinTemp to 210
TCL: Running for 100000 steps
ETITLE: TS BOND ANGLE DIHED IMPRP ELECT VDW BOUNDARY MISC KINETIC TOTAL TEMP POTENTIAL TOTAL3 TEMPAVG PRESSURE GPRESSURE VOLUME PRESSAVG GPRESSAVG
ENERGY: 600000 0.0000 0.0000 0.0000 0.0000 -13025.3838 2125.1889 0.0000 0.0000 1026.9277 -9873.2673 177.0379 -10900.1949 -9871.3499 177.0379 540.8781 604.7471 28268.7712 540.8781 604.7471
ENERGY: 700000 0.0000 0.0000 0.0000 0.0000 -12407.3413 1971.6911 0.0000 0.0000 1217.0616 -9218.5885 209.8161 -10435.6501 -9217.0153 209.7023 690.8940 769.7498 28719.6276 3.0748 2.9032
TCL: Running 100000 steps at 240 kelvin.
TCL: Setting parameter langevinTemp to 240
TCL: Running for 100000 steps
ETITLE: TS BOND ANGLE DIHED IMPRP ELECT VDW BOUNDARY MISC KINETIC TOTAL TEMP POTENTIAL TOTAL3 TEMPAVG PRESSURE GPRESSURE VOLUME PRESSAVG GPRESSAVG
ENERGY: 700000 0.0000 0.0000 0.0000 0.0000 -12407.3413 1971.6911 0.0000 0.0000 1216.4498 -9219.2004 209.7106 -10435.6501 -9217.4503 209.7106 690.0638 768.4476 28719.6276 690.0638 768.4476
ENERGY: 800000 0.0000 0.0000 0.0000 0.0000 -11718.8110 1660.1984 0.0000 0.0000 1366.2511 -8692.3615 235.5357 -10058.6126 -8689.3873 239.8456 -580.2582 -450.1699 28891.2216 3.9390 3.9533
TCL: Running 100000 steps at 270 kelvin.
TCL: Setting parameter langevinTemp to 270
TCL: Running for 100000 steps
ETITLE: TS BOND ANGLE DIHED IMPRP ELECT VDW BOUNDARY MISC KINETIC TOTAL TEMP POTENTIAL TOTAL3 TEMPAVG PRESSURE GPRESSURE VOLUME PRESSAVG GPRESSAVG
ENERGY: 800000 0.0000 0.0000 0.0000 0.0000 -11718.8110 1660.1984 0.0000 0.0000 1365.5743 -8693.0382 235.4191 -10058.6126 -8690.2480 235.4191 -544.1179 -452.6280 28891.2216 -544.1179 -452.6280
ENERGY: 900000 0.0000 0.0000 0.0000 0.0000 -11208.1190 1603.4630 0.0000 0.0000 1597.2832 -8007.3728 275.3647 -9604.6560 -8004.8050 269.5664 883.3214 940.5873 28780.0834 4.4884 4.4333
TCL: Running 1000000 steps at 300 kelvin.
TCL: Setting parameter langevinTemp to 300
TCL: Running for 1000000 steps
ETITLE: TS BOND ANGLE DIHED IMPRP ELECT VDW BOUNDARY MISC KINETIC TOTAL TEMP POTENTIAL TOTAL3 TEMPAVG PRESSURE GPRESSURE VOLUME PRESSAVG GPRESSAVG
ENERGY: 900000 0.0000 0.0000 0.0000 0.0000 -11208.1190 1603.4630 0.0000 0.0000 1596.5327 -8008.1233 275.2353 -9604.6560 -8005.5274 275.2353 859.2451 940.0864 28780.0834 859.2451 940.0864
ENERGY: 1100000 0.0000 0.0000 0.0000 0.0000 -10597.9088 1387.4034 0.0000 0.0000 1747.2636 -7463.2418 301.2206 -9210.5054 -7458.8853 300.8608 -272.1679 -163.7705 30136.7784 3.3920 3.4053
ENERGY: 1300000 0.0000 0.0000 0.0000 0.0000 -10707.3454 1473.6084 0.0000 0.0000 1768.6949 -7465.0421 304.9153 -9233.7369 -7460.2918 301.0004 325.8305 447.6097 30129.2549 3.4225 3.3843
ENERGY: 1500000 0.0000 0.0000 0.0000 0.0000 -10687.1381 1470.0152 0.0000 0.0000 1740.6548 -7476.4681 300.0813 -9217.1229 -7473.7659 300.2682 329.4530 442.8757 30050.2087 4.2720 4.1204
ENERGY: 1700000 0.0000 0.0000 0.0000 0.0000 -10722.3592 1454.8097 0.0000 0.0000 1732.3288 -7535.2207 298.6459 -9267.5494 -7533.3107 299.5095 8.1676 81.6971 30389.1412 4.6531 4.6694
ENERGY: 1900000 0.0000 0.0000 0.0000 0.0000 -10429.3403 1293.1103 0.0000 0.0000 1748.9549 -7387.2752 301.5122 -9136.2301 -7383.6635 300.3766 -1076.3514 -957.4897 30652.7193 3.2657 3.3017
TCL: Exiting due to exit command.
