Info: SIMULATION PARAMETERS:
Info: TIMESTEP               2
Info: NUMBER OF STEPS        0
Info: STEPS PER CYCLE        10
Info: PERIODIC CELL BASIS 1  36.005 0 0
Info: PERIODIC CELL BASIS 2  0 35.779 0
Info: PERIODIC CELL BASIS 3  0 0 34.954
Info: PERIODIC CELL CENTER   0 0 0
Info: WRAPPING WATERS AROUND PERIODIC BOUNDARIES ON OUTPUT.
Info: WRAPPING ALL CLUSTERS AROUND PERIODIC BOUNDARIES ON OUTPUT.
Info: FIRST LDB TIMESTEP     50
Info: LAST LDB TIMESTEP     -1
Info: HOM BACKGROUND SCALING 1
Info: PME BACKGROUND SCALING 1
Info: MIN ATOMS PER PATCH    40
Info: EMPTY PATCH LOAD       40 ATOMS
Info: INITIAL TEMPERATURE    300
Info: CENTER OF MASS MOVING INITIALLY? NO
Info: DIELECTRIC             1
Info: EXCLUDE                SCALED ONE-FOUR
Info: 1-4 ELECTROSTATICS SCALED BY 0.833333
Info: MODIFIED 1-4 VDW PARAMETERS WILL BE USED
Info: DCD FILENAME           mobley_1838110_equil.dcd
Info: DCD FREQUENCY          100000
Info: DCD FIRST STEP         100000
Info: DCD FILE WILL CONTAIN UNIT CELL DATA
Info: XST FILENAME           mobley_1838110_equil.xst
Info: XST FREQUENCY          100000
Info: NO VELOCITY DCD OUTPUT
Info: NO FORCE DCD OUTPUT
Info: OUTPUT FILENAME        mobley_1838110_equil
Info: BINARY OUTPUT FILES WILL BE USED
Info: RESTART FILENAME       mobley_1838110_equil.restart
Info: RESTART FREQUENCY      100000
Info: BINARY RESTART FILES WILL BE USED
Info: CUTOFF                 9
Info: PAIRLIST DISTANCE      11
Info: PAIRLIST SHRINK RATE   0.01
Info: PAIRLIST GROW RATE     0.01
Info: PAIRLIST TRIGGER       0.3
Info: PAIRLISTS PER CYCLE    2
Info: PAIRLISTS ENABLED
Info: MARGIN                 8
Info: HYDROGEN GROUP CUTOFF  2.5
Info: PATCH DIMENSION        21.5
Info: ENERGY OUTPUT STEPS    100000
Info: ENERGY EVALUATION STEPS    100000
Info: OUTPUT ENERGY PRECISION 4
Info: CROSSTERM ENERGY INCLUDED IN DIHEDRAL
Info: TIMING OUTPUT STEPS    1000000
Info: PRESSURE OUTPUT STEPS  100000
Info: FIXED ATOMS ACTIVE
Info: LANGEVIN DYNAMICS ACTIVE
Info: LANGEVIN TEMPERATURE   30
Info: LANGEVIN USING BBK INTEGRATOR
Info: LANGEVIN DAMPING COEFFICIENT IS 1 INVERSE PS
Info: LANGEVIN DYNAMICS APPLIED TO HYDROGENS
Info: LANGEVIN PISTON PRESSURE CONTROL ACTIVE
Info:        TARGET PRESSURE IS 1.01325 BAR
Info:     OSCILLATION PERIOD IS 50 FS
Info:             DECAY TIME IS 25 FS
Info:     PISTON TEMPERATURE IS 300 K
Info:       PRESSURE CONTROL IS GROUP-BASED
Info:    INITIAL STRAIN RATE IS 0 0 0
Info:       CELL FLUCTUATION IS ISOTROPIC
Info: PARTICLE MESH EWALD (PME) ACTIVE
Info: PME TOLERANCE               1e-06
Info: PME EWALD COEFFICIENT       0.348832
Info: PME INTERPOLATION ORDER     4
Info: PME GRID DIMENSIONS         40 36 36
Info: PME MAXIMUM GRID SPACING    1
Info: FULL ELECTROSTATIC EVALUATION FREQUENCY      2
Info: USING VERLET I (r-RESPA) MTS SCHEME.
Info: C1 SPLITTING OF LONG RANGE ELECTROSTATICS
Info: PLACING ATOMS IN PATCHES BY HYDROGEN GROUPS
Info: RIGID BONDS TO HYDROGEN : ALL
Info:         ERROR TOLERANCE : 1e-08
Info:          MAX ITERATIONS : 100
Info: RIGID WATER USING SETTLE ALGORITHM
Info: RANDOM NUMBER SEED     1743900512
Info: USE HYDROGEN BONDS?    NO
Info: Using AMBER format force field!
Info: AMBER PARM FILE        mobley_1838110.prmtop
Info: COORDINATE PDB         mobley_1838110.pdb
Info: Exclusions will be read from PARM file!
Info: SCNB (VDW SCALING)     2
Info: USING ARITHMETIC MEAN TO COMBINE L-J SIGMA PARAMETERS
Info: BINARY COORDINATES     mobley_1838110_min.coor
Info: SUMMARY OF PARAMETERS:
Info: 5 BONDS
Info: 5 ANGLES
Info:   5 HARMONIC
Info:   0 COSINE-BASED
Info: 4 DIHEDRAL
Info: 0 IMPROPER
Info: 0 CROSSTERM
Info: 0 VDW
Info: 15 VDW_PAIRS
Info: 0 NBTHOLE_PAIRS
Info: STRUCTURE SUMMARY:
Info: 2960 ATOMS
Info: 2959 BONDS
Info: 12 ANGLES
Info: 13 DIHEDRALS
Info: 0 IMPROPERS
Info: 0 CROSSTERMS
Info: 2980 EXCLUSIONS
Info: 8 FIXED ATOMS
Info: 2952 RIGID BONDS
Info: 0 RIGID BONDS BETWEEN FIXED ATOMS
Info: 5904 DEGREES OF FREEDOM
Info: 992 HYDROGEN GROUPS
Info: 3 ATOMS IN LARGEST HYDROGEN GROUP
Info: 992 MIGRATION GROUPS
Info: 3 ATOMS IN LARGEST MIGRATION GROUP
Info: 8 HYDROGEN GROUPS WITH ALL ATOMS FIXED
Info: TOTAL MASS = 17915.1 amu
Info: TOTAL CHARGE = 0.000100017 e
Info: MASS DENSITY = 0.66068 g/cm^3
Info: ATOM DENSITY = 0.0657361 atoms/A^3
Info: ADDED 0 IMPLICIT EXCLUSIONS
Info: NONBONDED TABLE R-SQUARED SPACING: 0.0625
Info: NONBONDED TABLE SIZE: 705 POINTS
Info: REMOVING COM VELOCITY 0.00529113 -0.140825 -0.191756
TCL: Running for 100000 steps
ETITLE: TS BOND ANGLE DIHED IMPRP ELECT VDW BOUNDARY MISC KINETIC TOTAL TEMP POTENTIAL TOTAL3 TEMPAVG PRESSURE GPRESSURE VOLUME PRESSAVG GPRESSAVG
ENERGY: 0 0.0000 0.0000 0.0000 0.0000 -13759.2470 2429.8412 0.0000 0.0000 1722.6919 -9606.7139 293.6646 -11329.4058 -9606.3704 293.6646 459.5484 492.5253 45028.5431 459.5484 492.5253
ENERGY: 100000 0.0000 0.0000 0.0000 0.0000 -14231.2212 2404.1675 0.0000 0.0000 173.9366 -11653.1171 29.6507 -11827.0537 -11652.9376 30.8892 -722.4596 -665.7871 29157.1460 3.2580 3.2545
TCL: Running 100000 steps at 60 kelvin.
TCL: Setting parameter langevinTemp to 60
TCL: Running for 100000 steps
ETITLE: TS BOND ANGLE DIHED IMPRP ELECT VDW BOUNDARY MISC KINETIC TOTAL TEMP POTENTIAL TOTAL3 TEMPAVG PRESSURE GPRESSURE VOLUME PRESSAVG GPRESSAVG
ENERGY: 100000 0.0000 0.0000 0.0000 0.0000 -14231.2212 2404.1675 0.0000 0.0000 173.8531 -11653.2007 29.6365 -11827.0537 -11652.7434 29.6365 -718.3754 -666.1411 29157.1460 -718.3754 -666.1411
ENERGY: 200000 0.0000 0.0000 0.0000 0.0000 -14295.9260 2576.4802 0.0000 0.0000 340.0840 -11379.3619 57.9736 -11719.4458 -11378.4805 59.9785 1134.2980 1192.8615 29004.9093 3.6819 3.6984
TCL: Running 100000 steps at 90 kelvin.
TCL: Setting parameter langevinTemp to 90
TCL: Running for 100000 steps
ETITLE: TS BOND ANGLE DIHED IMPRP ELECT VDW BOUNDARY MISC KINETIC TOTAL TEMP POTENTIAL TOTAL3 TEMPAVG PRESSURE GPRESSURE VOLUME PRESSAVG GPRESSAVG
ENERGY: 200000 0.0000 0.0000 0.0000 0.0000 -14295.9260 2576.4802 0.0000 0.0000 339.9111 -11379.5347 57.9441 -11719.4458 -11378.9541 57.9441 1134.6507 1192.9921 29004.9093 1134.6507 1192.9921
ENERGY: 300000 0.0000 0.0000 0.0000 0.0000 -14143.6244 2494.9202 0.0000 0.0000 515.3935 -11133.3107 87.8583 -11648.7042 -11131.9951 89.8939 628.2931 694.2212 29222.0902 3.2596 3.1615
TCL: Running 100000 steps at 120 kelvin.
TCL: Setting parameter langevinTemp to 120
TCL: Running for 100000 steps
ETITLE: TS BOND ANGLE DIHED IMPRP ELECT VDW BOUNDARY MISC KINETIC TOTAL TEMP POTENTIAL TOTAL3 TEMPAVG PRESSURE GPRESSURE VOLUME PRESSAVG GPRESSAVG
ENERGY: 300000 0.0000 0.0000 0.0000 0.0000 -14143.6244 2494.9202 0.0000 0.0000 515.1335 -11133.5707 87.8140 -11648.7042 -11132.7303 87.8140 650.3543 694.3282 29222.0902 650.3543 694.3282
ENERGY: 400000 0.0000 0.0000 0.0000 0.0000 -13693.4398 2207.2235 0.0000 0.0000 684.0608 -10802.1554 116.6108 -11486.2162 -10800.3287 120.1405 -1096.8062 -994.3208 29330.3288 3.2638 3.2319
TCL: Running 100000 steps at 150 kelvin.
TCL: Setting parameter langevinTemp to 150
TCL: Running for 100000 steps
ETITLE: TS BOND ANGLE DIHED IMPRP ELECT VDW BOUNDARY MISC KINETIC TOTAL TEMP POTENTIAL TOTAL3 TEMPAVG PRESSURE GPRESSURE VOLUME PRESSAVG GPRESSAVG
ENERGY: 400000 0.0000 0.0000 0.0000 0.0000 -13693.4398 2207.2235 0.0000 0.0000 683.7083 -10802.5080 116.5507 -11486.2162 -10801.3956 116.5507 -1052.7627 -993.7337 29330.3288 -1052.7627 -993.7337
ENERGY: 500000 0.0000 0.0000 0.0000 0.0000 -13660.2568 2271.1157 0.0000 0.0000 878.2021 -10510.9390 149.7058 -11389.1411 -10507.7750 150.0260 96.2705 114.9919 28816.7840 3.7043 3.6403
TCL: Running 100000 steps at 180 kelvin.
TCL: Setting parameter langevinTemp to 180
TCL: Running for 100000 steps
ETITLE: TS BOND ANGLE DIHED IMPRP ELECT VDW BOUNDARY MISC KINETIC TOTAL TEMP POTENTIAL TOTAL3 TEMPAVG PRESSURE GPRESSURE VOLUME PRESSAVG GPRESSAVG
ENERGY: 500000 0.0000 0.0000 0.0000 0.0000 -13660.2568 2271.1157 0.0000 0.0000 877.7688 -10511.3723 149.6319 -11389.1411 -10510.0375 149.6319 75.1042 115.4823 28816.7840 75.1042 115.4823
ENERGY: 600000 0.0000 0.0000 0.0000 0.0000 -13097.1807 1994.4646 0.0000 0.0000 1053.6581 -10049.0580 179.6155 -11102.7161 -10046.8187 180.2134 -772.2796 -694.4395 28379.5830 4.5764 4.4373
TCL: Running 100000 steps at 210 kelvin.
TCL: Setting parameter langevinTemp to 210
TCL: Running for 100000 steps
ETITLE: TS BOND ANGLE DIHED IMPRP ELECT VDW BOUNDARY MISC KINETIC TOTAL TEMP POTENTIAL TOTAL3 TEMPAVG PRESSURE GPRESSURE VOLUME PRESSAVG GPRESSAVG
ENERGY: 600000 0.0000 0.0000 0.0000 0.0000 -13097.1807 1994.4646 0.0000 0.0000 1053.1426 -10049.5736 179.5276 -11102.7161 -10047.3317 179.5276 -785.1987 -694.3255 28379.5830 -785.1987 -694.3255
ENERGY: 700000 0.0000 0.0000 0.0000 0.0000 -12483.2057 1905.5763 0.0000 0.0000 1197.8446 -9379.7849 204.1947 -10577.6295 -9378.6446 209.6779 -210.4605 -134.6612 29238.6668 3.4094 3.3436
TCL: Running 100000 steps at 240 kelvin.
TCL: Setting parameter langevinTemp to 240
TCL: Running for 100000 steps
ETITLE: TS BOND ANGLE DIHED IMPRP ELECT VDW BOUNDARY MISC KINETIC TOTAL TEMP POTENTIAL TOTAL3 TEMPAVG PRESSURE GPRESSURE VOLUME PRESSAVG GPRESSAVG
ENERGY: 700000 0.0000 0.0000 0.0000 0.0000 -12483.2057 1905.5763 0.0000 0.0000 1197.2599 -9380.3695 204.0951 -10577.6295 -9378.1872 204.0951 -215.8902 -135.9452 29238.6668 -215.8902 -135.9452
ENERGY: 800000 0.0000 0.0000 0.0000 0.0000 -11799.2054 1658.6070 0.0000 0.0000 1411.4526 -8729.1457 240.6082 -10140.5984 -8725.4474 240.0239 -689.1896 -626.3332 29777.0756 3.8123 3.9173
TCL: Running 100000 steps at 270 kelvin.
TCL: Setting parameter langevinTemp to 270
TCL: Running for 100000 steps
ETITLE: TS BOND ANGLE DIHED IMPRP ELECT VDW BOUNDARY MISC KINETIC TOTAL TEMP POTENTIAL TOTAL3 TEMPAVG PRESSURE GPRESSURE VOLUME PRESSAVG GPRESSAVG
ENERGY: 800000 0.0000 0.0000 0.0000 0.0000 -11799.2054 1658.6070 0.0000 0.0000 1410.7767 -8729.8216 240.4929 -10140.5984 -8726.9671 240.4929 -695.8664 -625.6530 29777.0756 -695.8664 -625.6530
ENERGY: 900000 0.0000 0.0000 0.0000 0.0000 -11311.1383 1576.6495 0.0000 0.0000 1584.4730 -8150.0158 270.1027 -9734.4887 -8146.4048 269.4164 101.5878 201.4377 29467.3548 3.9876 3.8593
TCL: Running 1000000 steps at 300 kelvin.
TCL: Setting parameter langevinTemp to 300
TCL: Running for 1000000 steps
ETITLE: TS BOND ANGLE DIHED IMPRP ELECT VDW BOUNDARY MISC KINETIC TOTAL TEMP POTENTIAL TOTAL3 TEMPAVG PRESSURE GPRESSURE VOLUME PRESSAVG GPRESSAVG
ENERGY: 900000 0.0000 0.0000 0.0000 0.0000 -11311.1383 1576.6495 0.0000 0.0000 1583.6929 -8150.7958 269.9697 -9734.4887 -8148.9736 269.9697 112.0084 203.6184 29467.3548 112.0084 203.6184
ENERGY: 1100000 0.0000 0.0000 0.0000 0.0000 -10716.0271 1384.5028 0.0000 0.0000 1782.4307 -7549.0936 303.8482 -9331.5243 -7545.6894 299.9266 -552.8088 -464.7372 30805.3026 3.6632 3.6189
ENERGY: 1300000 0.0000 0.0000 0.0000 0.0000 -10815.5974 1458.7824 0.0000 0.0000 1775.8405 -7580.9746 302.7248 -9356.8150 -7577.0641 300.3019 153.1818 192.9831 30430.9894 4.2070 4.2215
ENERGY: 1500000 0.0000 0.0000 0.0000 0.0000 -10608.8701 1396.1734 0.0000 0.0000 1736.6859 -7476.0108 296.0502 -9212.6967 -7472.7437 299.7994 -202.4686 -86.7513 30938.5737 3.1039 3.2517
ENERGY: 1700000 0.0000 0.0000 0.0000 0.0000 -10626.1330 1362.7945 0.0000 0.0000 1801.4340 -7461.9045 307.0877 -9263.3385 -7457.0391 300.7343 -455.3655 -343.4191 31018.0364 4.0095 4.1478
ENERGY: 1900000 0.0000 0.0000 0.0000 0.0000 -10740.6262 1467.0374 0.0000 0.0000 1750.6669 -7522.9219 298.4335 -9273.5888 -7518.0517 300.1668 451.5536 615.4865 30224.8863 2.8613 2.8942
TCL: Exiting due to exit command.
