Info: SIMULATION PARAMETERS:
Info: TIMESTEP               2
Info: NUMBER OF STEPS        0
Info: STEPS PER CYCLE        10
Info: PERIODIC CELL BASIS 1  37.399 0 0
Info: PERIODIC CELL BASIS 2  0 34.26 0
Info: PERIODIC CELL BASIS 3  0 0 34.229
Info: PERIODIC CELL CENTER   0 0 0
Info: WRAPPING WATERS AROUND PERIODIC BOUNDARIES ON OUTPUT.
Info: WRAPPING ALL CLUSTERS AROUND PERIODIC BOUNDARIES ON OUTPUT.
Info: FIRST LDB TIMESTEP     50
Info: LAST LDB TIMESTEP     -1
Info: HOM BACKGROUND SCALING 1
Info: PME BACKGROUND SCALING 1
Info: MIN ATOMS PER PATCH    40
Info: EMPTY PATCH LOAD       40 ATOMS
Info: INITIAL TEMPERATURE    300
Info: CENTER OF MASS MOVING INITIALLY? NO
Info: DIELECTRIC             1
Info: EXCLUDE                SCALED ONE-FOUR
Info: 1-4 ELECTROSTATICS SCALED BY 0.833333
Info: MODIFIED 1-4 VDW PARAMETERS WILL BE USED
Info: DCD FILENAME           mobley_5467162_equil.dcd
Info: DCD FREQUENCY          100000
Info: DCD FIRST STEP         100000
Info: DCD FILE WILL CONTAIN UNIT CELL DATA
Info: XST FILENAME           mobley_5467162_equil.xst
Info: XST FREQUENCY          100000
Info: NO VELOCITY DCD OUTPUT
Info: NO FORCE DCD OUTPUT
Info: OUTPUT FILENAME        mobley_5467162_equil
Info: BINARY OUTPUT FILES WILL BE USED
Info: RESTART FILENAME       mobley_5467162_equil.restart
Info: RESTART FREQUENCY      100000
Info: BINARY RESTART FILES WILL BE USED
Info: CUTOFF                 9
Info: PAIRLIST DISTANCE      11
Info: PAIRLIST SHRINK RATE   0.01
Info: PAIRLIST GROW RATE     0.01
Info: PAIRLIST TRIGGER       0.3
Info: PAIRLISTS PER CYCLE    2
Info: PAIRLISTS ENABLED
Info: MARGIN                 8
Info: HYDROGEN GROUP CUTOFF  2.5
Info: PATCH DIMENSION        21.5
Info: ENERGY OUTPUT STEPS    100000
Info: ENERGY EVALUATION STEPS    100000
Info: OUTPUT ENERGY PRECISION 4
Info: CROSSTERM ENERGY INCLUDED IN DIHEDRAL
Info: TIMING OUTPUT STEPS    1000000
Info: PRESSURE OUTPUT STEPS  100000
Info: FIXED ATOMS ACTIVE
Info: LANGEVIN DYNAMICS ACTIVE
Info: LANGEVIN TEMPERATURE   30
Info: LANGEVIN USING BBK INTEGRATOR
Info: LANGEVIN DAMPING COEFFICIENT IS 1 INVERSE PS
Info: LANGEVIN DYNAMICS APPLIED TO HYDROGENS
Info: LANGEVIN PISTON PRESSURE CONTROL ACTIVE
Info:        TARGET PRESSURE IS 1.01325 BAR
Info:     OSCILLATION PERIOD IS 50 FS
Info:             DECAY TIME IS 25 FS
Info:     PISTON TEMPERATURE IS 300 K
Info:       PRESSURE CONTROL IS GROUP-BASED
Info:    INITIAL STRAIN RATE IS 0 0 0
Info:       CELL FLUCTUATION IS ISOTROPIC
Info: PARTICLE MESH EWALD (PME) ACTIVE
Info: PME TOLERANCE               1e-06
Info: PME EWALD COEFFICIENT       0.348832
Info: PME INTERPOLATION ORDER     4
Info: PME GRID DIMENSIONS         40 36 36
Info: PME MAXIMUM GRID SPACING    1
Info: FULL ELECTROSTATIC EVALUATION FREQUENCY      2
Info: USING VERLET I (r-RESPA) MTS SCHEME.
Info: C1 SPLITTING OF LONG RANGE ELECTROSTATICS
Info: PLACING ATOMS IN PATCHES BY HYDROGEN GROUPS
Info: RIGID BONDS TO HYDROGEN : ALL
Info:         ERROR TOLERANCE : 1e-08
Info:          MAX ITERATIONS : 100
Info: RIGID WATER USING SETTLE ALGORITHM
Info: RANDOM NUMBER SEED     1743765233
Info: USE HYDROGEN BONDS?    NO
Info: Using AMBER format force field!
Info: AMBER PARM FILE        mobley_5467162.prmtop
Info: COORDINATE PDB         mobley_5467162.pdb
Info: Exclusions will be read from PARM file!
Info: SCNB (VDW SCALING)     2
Info: USING ARITHMETIC MEAN TO COMBINE L-J SIGMA PARAMETERS
Info: BINARY COORDINATES     mobley_5467162_min.coor
Info: SUMMARY OF PARAMETERS:
Info: 9 BONDS
Info: 9 ANGLES
Info:   9 HARMONIC
Info:   0 COSINE-BASED
Info: 6 DIHEDRAL
Info: 0 IMPROPER
Info: 0 CROSSTERM
Info: 0 VDW
Info: 28 VDW_PAIRS
Info: 0 NBTHOLE_PAIRS
Info: STRUCTURE SUMMARY:
Info: 2938 ATOMS
Info: 2938 BONDS
Info: 43 ANGLES
Info: 65 DIHEDRALS
Info: 0 IMPROPERS
Info: 0 CROSSTERMS
Info: 3037 EXCLUSIONS
Info: 25 FIXED ATOMS
Info: 2927 RIGID BONDS
Info: 14 RIGID BONDS BETWEEN FIXED ATOMS
Info: 5826 DEGREES OF FREEDOM
Info: 982 HYDROGEN GROUPS
Info: 4 ATOMS IN LARGEST HYDROGEN GROUP
Info: 982 MIGRATION GROUPS
Info: 4 ATOMS IN LARGEST MIGRATION GROUP
Info: 11 HYDROGEN GROUPS WITH ALL ATOMS FIXED
Info: TOTAL MASS = 17643.7 amu
Info: TOTAL CHARGE = -0.000499953 e
Info: MASS DENSITY = 0.668049 g/cm^3
Info: ATOM DENSITY = 0.06699 atoms/A^3
Info: ADDED 0 IMPLICIT EXCLUSIONS
Info: NONBONDED TABLE R-SQUARED SPACING: 0.0625
Info: NONBONDED TABLE SIZE: 705 POINTS
Info: REMOVING COM VELOCITY 0.0669892 -0.0720852 0.0973085
TCL: Running for 100000 steps
ETITLE: TS BOND ANGLE DIHED IMPRP ELECT VDW BOUNDARY MISC KINETIC TOTAL TEMP POTENTIAL TOTAL3 TEMPAVG PRESSURE GPRESSURE VOLUME PRESSAVG GPRESSAVG
ENERGY: 0 0.0000 0.0000 0.0000 0.0000 -13534.2472 2357.9057 0.0000 0.0000 1649.1950 -9527.1465 284.8996 -11176.3415 -9526.8350 284.8996 224.7035 260.7983 43857.2665 224.7035 260.7983
ENERGY: 100000 0.0000 0.0000 0.0000 0.0000 -14121.9343 2448.7600 0.0000 0.0000 180.9915 -11492.1828 31.2664 -11673.1743 -11491.5550 30.7978 212.9887 262.0516 28663.5494 3.3200 3.3491
TCL: Running 100000 steps at 60 kelvin.
TCL: Setting parameter langevinTemp to 60
TCL: Running for 100000 steps
ETITLE: TS BOND ANGLE DIHED IMPRP ELECT VDW BOUNDARY MISC KINETIC TOTAL TEMP POTENTIAL TOTAL3 TEMPAVG PRESSURE GPRESSURE VOLUME PRESSAVG GPRESSAVG
ENERGY: 100000 0.0000 0.0000 0.0000 0.0000 -14121.9343 2448.7600 0.0000 0.0000 180.9050 -11492.2693 31.2515 -11673.1743 -11491.8119 31.2515 204.3080 261.9396 28663.5494 204.3080 261.9396
ENERGY: 200000 0.0000 0.0000 0.0000 0.0000 -14123.6486 2506.4813 0.0000 0.0000 348.8437 -11268.3237 60.2630 -11617.1674 -11267.6821 59.9397 1012.1071 1060.7737 28440.3798 3.7304 3.6910
TCL: Running 100000 steps at 90 kelvin.
TCL: Setting parameter langevinTemp to 90
TCL: Running for 100000 steps
ETITLE: TS BOND ANGLE DIHED IMPRP ELECT VDW BOUNDARY MISC KINETIC TOTAL TEMP POTENTIAL TOTAL3 TEMPAVG PRESSURE GPRESSURE VOLUME PRESSAVG GPRESSAVG
ENERGY: 200000 0.0000 0.0000 0.0000 0.0000 -14123.6486 2506.4813 0.0000 0.0000 348.6699 -11268.4975 60.2330 -11617.1674 -11267.8481 60.2330 994.2816 1060.4093 28440.3798 994.2816 1060.4093
ENERGY: 300000 0.0000 0.0000 0.0000 0.0000 -13883.8321 2346.6862 0.0000 0.0000 520.9897 -11016.1562 90.0014 -11537.1459 -11015.4082 89.9466 15.7948 15.9969 28576.9622 3.6471 3.5884
TCL: Running 100000 steps at 120 kelvin.
TCL: Setting parameter langevinTemp to 120
TCL: Running for 100000 steps
ETITLE: TS BOND ANGLE DIHED IMPRP ELECT VDW BOUNDARY MISC KINETIC TOTAL TEMP POTENTIAL TOTAL3 TEMPAVG PRESSURE GPRESSURE VOLUME PRESSAVG GPRESSAVG
ENERGY: 300000 0.0000 0.0000 0.0000 0.0000 -13883.8321 2346.6862 0.0000 0.0000 520.7278 -11016.4180 89.9561 -11537.1459 -11015.4689 89.9561 -26.0739 15.4202 28576.9622 -26.0739 15.4202
ENERGY: 400000 0.0000 0.0000 0.0000 0.0000 -13669.4064 2256.8705 0.0000 0.0000 705.3853 -10707.1506 121.8558 -11412.5358 -10705.4913 119.9377 -429.1583 -331.5518 28751.5905 3.5239 3.4704
TCL: Running 100000 steps at 150 kelvin.
TCL: Setting parameter langevinTemp to 150
TCL: Running for 100000 steps
ETITLE: TS BOND ANGLE DIHED IMPRP ELECT VDW BOUNDARY MISC KINETIC TOTAL TEMP POTENTIAL TOTAL3 TEMPAVG PRESSURE GPRESSURE VOLUME PRESSAVG GPRESSAVG
ENERGY: 400000 0.0000 0.0000 0.0000 0.0000 -13669.4064 2256.8705 0.0000 0.0000 705.0419 -10707.4940 121.7965 -11412.5358 -10706.1496 121.7965 -370.3542 -331.7875 28751.5905 -370.3542 -331.7875
ENERGY: 500000 0.0000 0.0000 0.0000 0.0000 -13577.0415 2321.1956 0.0000 0.0000 853.8276 -10402.0183 147.4993 -11255.8459 -10399.6116 149.8500 524.6497 556.2536 28828.3493 3.3640 3.3414
TCL: Running 100000 steps at 180 kelvin.
TCL: Setting parameter langevinTemp to 180
TCL: Running for 100000 steps
ETITLE: TS BOND ANGLE DIHED IMPRP ELECT VDW BOUNDARY MISC KINETIC TOTAL TEMP POTENTIAL TOTAL3 TEMPAVG PRESSURE GPRESSURE VOLUME PRESSAVG GPRESSAVG
ENERGY: 500000 0.0000 0.0000 0.0000 0.0000 -13577.0415 2321.1956 0.0000 0.0000 853.3953 -10402.4506 147.4247 -11255.8459 -10401.2033 147.4247 505.3372 556.4458 28828.3493 505.3372 556.4458
ENERGY: 600000 0.0000 0.0000 0.0000 0.0000 -13057.7928 2098.1355 0.0000 0.0000 1047.3166 -9912.3407 180.9247 -10959.6573 -9910.1698 180.2944 -201.4724 -99.1172 28818.8438 2.7012 2.8130
TCL: Running 100000 steps at 210 kelvin.
TCL: Setting parameter langevinTemp to 210
TCL: Running for 100000 steps
ETITLE: TS BOND ANGLE DIHED IMPRP ELECT VDW BOUNDARY MISC KINETIC TOTAL TEMP POTENTIAL TOTAL3 TEMPAVG PRESSURE GPRESSURE VOLUME PRESSAVG GPRESSAVG
ENERGY: 600000 0.0000 0.0000 0.0000 0.0000 -13057.7928 2098.1355 0.0000 0.0000 1046.7806 -9912.8767 180.8321 -10959.6573 -9910.6406 180.8321 -171.8304 -99.0233 28818.8438 -171.8304 -99.0233
ENERGY: 700000 0.0000 0.0000 0.0000 0.0000 -12410.8465 1904.9394 0.0000 0.0000 1254.4325 -9251.4746 216.7041 -10505.9071 -9248.4388 209.7834 4.7213 74.1173 29002.1375 4.0853 3.8869
TCL: Running 100000 steps at 240 kelvin.
TCL: Setting parameter langevinTemp to 240
TCL: Running for 100000 steps
ETITLE: TS BOND ANGLE DIHED IMPRP ELECT VDW BOUNDARY MISC KINETIC TOTAL TEMP POTENTIAL TOTAL3 TEMPAVG PRESSURE GPRESSURE VOLUME PRESSAVG GPRESSAVG
ENERGY: 700000 0.0000 0.0000 0.0000 0.0000 -12410.8465 1904.9394 0.0000 0.0000 1253.8574 -9252.0498 216.6048 -10505.9071 -9249.6639 216.6048 8.9392 73.8300 29002.1375 8.9392 73.8300
ENERGY: 800000 0.0000 0.0000 0.0000 0.0000 -11682.9468 1601.4830 0.0000 0.0000 1397.5810 -8683.8827 241.4332 -10081.4638 -8680.6671 239.9387 -1051.0972 -989.3582 29268.9063 2.8052 2.8310
TCL: Running 100000 steps at 270 kelvin.
TCL: Setting parameter langevinTemp to 270
TCL: Running for 100000 steps
ETITLE: TS BOND ANGLE DIHED IMPRP ELECT VDW BOUNDARY MISC KINETIC TOTAL TEMP POTENTIAL TOTAL3 TEMPAVG PRESSURE GPRESSURE VOLUME PRESSAVG GPRESSAVG
ENERGY: 800000 0.0000 0.0000 0.0000 0.0000 -11682.9468 1601.4830 0.0000 0.0000 1396.9205 -8684.5433 241.3190 -10081.4638 -8682.0913 241.3190 -1070.7678 -989.2656 29268.9063 -1070.7678 -989.2656
ENERGY: 900000 0.0000 0.0000 0.0000 0.0000 -11121.8508 1511.6437 0.0000 0.0000 1576.7853 -8033.4218 272.3908 -9610.2071 -8030.7627 270.4720 -449.6522 -326.5037 29824.9648 2.9171 2.8316
TCL: Running 1000000 steps at 300 kelvin.
TCL: Setting parameter langevinTemp to 300
TCL: Running for 1000000 steps
ETITLE: TS BOND ANGLE DIHED IMPRP ELECT VDW BOUNDARY MISC KINETIC TOTAL TEMP POTENTIAL TOTAL3 TEMPAVG PRESSURE GPRESSURE VOLUME PRESSAVG GPRESSAVG
ENERGY: 900000 0.0000 0.0000 0.0000 0.0000 -11121.8508 1511.6437 0.0000 0.0000 1576.0126 -8034.1946 272.2573 -9610.2071 -8031.7793 272.2573 -407.4119 -327.1587 29824.9648 -407.4119 -327.1587
ENERGY: 1100000 0.0000 0.0000 0.0000 0.0000 -10755.3198 1476.0016 0.0000 0.0000 1758.2236 -7521.0946 303.7344 -9279.3182 -7518.4964 299.2752 589.7314 631.1250 30005.5259 3.4675 3.3629
ENERGY: 1300000 0.0000 0.0000 0.0000 0.0000 -10678.7596 1366.5621 0.0000 0.0000 1773.2560 -7538.9415 306.3313 -9312.1975 -7534.6865 300.1403 -476.8094 -420.2071 29940.1379 2.9846 2.6604
ENERGY: 1500000 0.0000 0.0000 0.0000 0.0000 -10634.3449 1400.3624 0.0000 0.0000 1706.5085 -7527.4741 294.8006 -9233.9825 -7525.9654 300.3667 -393.0170 -252.3638 30385.1433 2.1191 2.3649
ENERGY: 1700000 0.0000 0.0000 0.0000 0.0000 -10708.7040 1401.5971 0.0000 0.0000 1680.2337 -7626.8733 290.2616 -9307.1069 -7622.1468 299.8980 -470.9946 -368.9722 30326.8814 3.1997 3.0770
ENERGY: 1900000 0.0000 0.0000 0.0000 0.0000 -10693.2807 1405.7158 0.0000 0.0000 1750.4595 -7537.1054 302.3932 -9287.5649 -7535.7003 300.0328 -266.2594 -155.7491 30104.0278 4.8974 4.6847
TCL: Exiting due to exit command.
