Info: SIMULATION PARAMETERS:
Info: TIMESTEP               2
Info: NUMBER OF STEPS        0
Info: STEPS PER CYCLE        10
Info: PERIODIC CELL BASIS 1  39.806 0 0
Info: PERIODIC CELL BASIS 2  0 35.411 0
Info: PERIODIC CELL BASIS 3  0 0 30.728
Info: PERIODIC CELL CENTER   0 0 0
Info: WRAPPING WATERS AROUND PERIODIC BOUNDARIES ON OUTPUT.
Info: WRAPPING ALL CLUSTERS AROUND PERIODIC BOUNDARIES ON OUTPUT.
Info: FIRST LDB TIMESTEP     50
Info: LAST LDB TIMESTEP     -1
Info: HOM BACKGROUND SCALING 1
Info: PME BACKGROUND SCALING 1
Info: MIN ATOMS PER PATCH    40
Info: EMPTY PATCH LOAD       40 ATOMS
Info: INITIAL TEMPERATURE    300
Info: CENTER OF MASS MOVING INITIALLY? NO
Info: DIELECTRIC             1
Info: EXCLUDE                SCALED ONE-FOUR
Info: 1-4 ELECTROSTATICS SCALED BY 0.833333
Info: MODIFIED 1-4 VDW PARAMETERS WILL BE USED
Info: DCD FILENAME           mobley_5003962_equil.dcd
Info: DCD FREQUENCY          100000
Info: DCD FIRST STEP         100000
Info: DCD FILE WILL CONTAIN UNIT CELL DATA
Info: XST FILENAME           mobley_5003962_equil.xst
Info: XST FREQUENCY          100000
Info: NO VELOCITY DCD OUTPUT
Info: NO FORCE DCD OUTPUT
Info: OUTPUT FILENAME        mobley_5003962_equil
Info: BINARY OUTPUT FILES WILL BE USED
Info: RESTART FILENAME       mobley_5003962_equil.restart
Info: RESTART FREQUENCY      100000
Info: BINARY RESTART FILES WILL BE USED
Info: CUTOFF                 9
Info: PAIRLIST DISTANCE      11
Info: PAIRLIST SHRINK RATE   0.01
Info: PAIRLIST GROW RATE     0.01
Info: PAIRLIST TRIGGER       0.3
Info: PAIRLISTS PER CYCLE    2
Info: PAIRLISTS ENABLED
Info: MARGIN                 8
Info: HYDROGEN GROUP CUTOFF  2.5
Info: PATCH DIMENSION        21.5
Info: ENERGY OUTPUT STEPS    100000
Info: ENERGY EVALUATION STEPS    100000
Info: OUTPUT ENERGY PRECISION 4
Info: CROSSTERM ENERGY INCLUDED IN DIHEDRAL
Info: TIMING OUTPUT STEPS    1000000
Info: PRESSURE OUTPUT STEPS  100000
Info: FIXED ATOMS ACTIVE
Info: LANGEVIN DYNAMICS ACTIVE
Info: LANGEVIN TEMPERATURE   30
Info: LANGEVIN USING BBK INTEGRATOR
Info: LANGEVIN DAMPING COEFFICIENT IS 1 INVERSE PS
Info: LANGEVIN DYNAMICS APPLIED TO HYDROGENS
Info: LANGEVIN PISTON PRESSURE CONTROL ACTIVE
Info:        TARGET PRESSURE IS 1.01325 BAR
Info:     OSCILLATION PERIOD IS 50 FS
Info:             DECAY TIME IS 25 FS
Info:     PISTON TEMPERATURE IS 300 K
Info:       PRESSURE CONTROL IS GROUP-BASED
Info:    INITIAL STRAIN RATE IS 0 0 0
Info:       CELL FLUCTUATION IS ISOTROPIC
Info: PARTICLE MESH EWALD (PME) ACTIVE
Info: PME TOLERANCE               1e-06
Info: PME EWALD COEFFICIENT       0.348832
Info: PME INTERPOLATION ORDER     4
Info: PME GRID DIMENSIONS         40 36 32
Info: PME MAXIMUM GRID SPACING    1
Info: FULL ELECTROSTATIC EVALUATION FREQUENCY      2
Info: USING VERLET I (r-RESPA) MTS SCHEME.
Info: C1 SPLITTING OF LONG RANGE ELECTROSTATICS
Info: PLACING ATOMS IN PATCHES BY HYDROGEN GROUPS
Info: RIGID BONDS TO HYDROGEN : ALL
Info:         ERROR TOLERANCE : 1e-08
Info:          MAX ITERATIONS : 100
Info: RIGID WATER USING SETTLE ALGORITHM
Info: RANDOM NUMBER SEED     1743765347
Info: USE HYDROGEN BONDS?    NO
Info: Using AMBER format force field!
Info: AMBER PARM FILE        mobley_5003962.prmtop
Info: COORDINATE PDB         mobley_5003962.pdb
Info: Exclusions will be read from PARM file!
Info: SCNB (VDW SCALING)     2
Info: USING ARITHMETIC MEAN TO COMBINE L-J SIGMA PARAMETERS
Info: BINARY COORDINATES     mobley_5003962_min.coor
Info: SUMMARY OF PARAMETERS:
Info: 8 BONDS
Info: 8 ANGLES
Info: 5 DIHEDRAL
Info: 0 IMPROPER
Info: 0 CROSSTERM
Info: 0 VDW
Info: 28 VDW_PAIRS
Info: 0 NBTHOLE_PAIRS
Info: STRUCTURE SUMMARY:
Info: 2915 ATOMS
Info: 2917 BONDS
Info: 45 ANGLES
Info: 83 DIHEDRALS
Info: 0 IMPROPERS
Info: 0 CROSSTERMS
Info: 3021 EXCLUSIONS
Info: 26 FIXED ATOMS
Info: 2898 RIGID BONDS
Info: 9 RIGID BONDS BETWEEN FIXED ATOMS
Info: 5778 DEGREES OF FREEDOM
Info: 980 HYDROGEN GROUPS
Info: 3 ATOMS IN LARGEST HYDROGEN GROUP
Info: 980 MIGRATION GROUPS
Info: 3 ATOMS IN LARGEST MIGRATION GROUP
Info: 17 HYDROGEN GROUPS WITH ALL ATOMS FIXED
Info: TOTAL MASS = 17572.6 amu
Info: TOTAL CHARGE = 0.000100043 e
Info: MASS DENSITY = 0.673713 g/cm^3
Info: ATOM DENSITY = 0.0673004 atoms/A^3
Info: ADDED 0 IMPLICIT EXCLUSIONS
Info: NONBONDED TABLE R-SQUARED SPACING: 0.0625
Info: NONBONDED TABLE SIZE: 705 POINTS
Info: REMOVING COM VELOCITY 0.16975 0.1396 0.0514516
TCL: Running for 100000 steps
ETITLE: TS BOND ANGLE DIHED IMPRP ELECT VDW BOUNDARY MISC KINETIC TOTAL TEMP POTENTIAL TOTAL3 TEMPAVG PRESSURE GPRESSURE VOLUME PRESSAVG GPRESSAVG
ENERGY: 0 0.0000 0.0000 0.0000 0.0000 -13627.5254 2385.9996 0.0000 0.0000 1733.9335 -9507.5923 302.0267 -11241.5258 -9507.2610 302.0267 558.5590 590.9552 43313.2751 558.5590 590.9552
ENERGY: 100000 0.0000 0.0000 0.0000 0.0000 -14227.4504 2498.4616 0.0000 0.0000 174.3037 -11554.6851 30.3612 -11728.9888 -11554.3095 30.9946 599.8502 654.6247 28671.9385 3.7927 3.7833
TCL: Running 100000 steps at 60 kelvin.
TCL: Setting parameter langevinTemp to 60
TCL: Running for 100000 steps
ETITLE: TS BOND ANGLE DIHED IMPRP ELECT VDW BOUNDARY MISC KINETIC TOTAL TEMP POTENTIAL TOTAL3 TEMPAVG PRESSURE GPRESSURE VOLUME PRESSAVG GPRESSAVG
ENERGY: 100000 0.0000 0.0000 0.0000 0.0000 -14227.4504 2498.4616 0.0000 0.0000 174.2181 -11554.7707 30.3463 -11728.9888 -11554.4770 30.3463 599.1055 654.8173 28671.9385 599.1055 654.8173
ENERGY: 200000 0.0000 0.0000 0.0000 0.0000 -14161.1251 2498.1545 0.0000 0.0000 348.9381 -11314.0324 60.7801 -11662.9706 -11312.9509 60.0091 818.3614 918.3482 28524.9613 4.7202 4.7224
TCL: Running 100000 steps at 90 kelvin.
TCL: Setting parameter langevinTemp to 90
TCL: Running for 100000 steps
ETITLE: TS BOND ANGLE DIHED IMPRP ELECT VDW BOUNDARY MISC KINETIC TOTAL TEMP POTENTIAL TOTAL3 TEMPAVG PRESSURE GPRESSURE VOLUME PRESSAVG GPRESSAVG
ENERGY: 200000 0.0000 0.0000 0.0000 0.0000 -14161.1251 2498.1545 0.0000 0.0000 348.7653 -11314.2052 60.7500 -11662.9706 -11313.7925 60.7500 848.1155 918.4492 28524.9613 848.1155 918.4492
ENERGY: 300000 0.0000 0.0000 0.0000 0.0000 -13846.3824 2266.2163 0.0000 0.0000 526.5268 -11053.6393 91.7135 -11580.1661 -11052.4696 90.1325 -589.9161 -562.0415 28544.4610 3.6670 3.7284
TCL: Running 100000 steps at 120 kelvin.
TCL: Setting parameter langevinTemp to 120
TCL: Running for 100000 steps
ETITLE: TS BOND ANGLE DIHED IMPRP ELECT VDW BOUNDARY MISC KINETIC TOTAL TEMP POTENTIAL TOTAL3 TEMPAVG PRESSURE GPRESSURE VOLUME PRESSAVG GPRESSAVG
ENERGY: 300000 0.0000 0.0000 0.0000 0.0000 -13846.3824 2266.2163 0.0000 0.0000 526.2650 -11053.9011 91.6679 -11580.1661 -11052.7886 91.6679 -617.3216 -562.4194 28544.4610 -617.3216 -562.4194
ENERGY: 400000 0.0000 0.0000 0.0000 0.0000 -13791.4883 2356.7334 0.0000 0.0000 694.7739 -10739.9810 121.0198 -11434.7549 -10738.7202 119.6831 822.1093 844.9593 28410.5631 4.8779 4.8036
TCL: Running 100000 steps at 150 kelvin.
TCL: Setting parameter langevinTemp to 150
TCL: Running for 100000 steps
ETITLE: TS BOND ANGLE DIHED IMPRP ELECT VDW BOUNDARY MISC KINETIC TOTAL TEMP POTENTIAL TOTAL3 TEMPAVG PRESSURE GPRESSURE VOLUME PRESSAVG GPRESSAVG
ENERGY: 400000 0.0000 0.0000 0.0000 0.0000 -13791.4883 2356.7334 0.0000 0.0000 694.4133 -10740.3416 120.9570 -11434.7549 -10738.9657 120.9570 805.2943 844.7983 28410.5631 805.2943 844.7983
ENERGY: 500000 0.0000 0.0000 0.0000 0.0000 -13431.2726 2172.1682 0.0000 0.0000 848.5567 -10410.5478 147.8066 -11259.1044 -10408.1616 150.2458 -8.5657 63.2116 28204.3613 2.1567 2.1240
TCL: Running 100000 steps at 180 kelvin.
TCL: Setting parameter langevinTemp to 180
TCL: Running for 100000 steps
ETITLE: TS BOND ANGLE DIHED IMPRP ELECT VDW BOUNDARY MISC KINETIC TOTAL TEMP POTENTIAL TOTAL3 TEMPAVG PRESSURE GPRESSURE VOLUME PRESSAVG GPRESSAVG
ENERGY: 500000 0.0000 0.0000 0.0000 0.0000 -13431.2726 2172.1682 0.0000 0.0000 848.1386 -10410.9658 147.7337 -11259.1044 -10409.5835 147.7337 2.5857 63.6701 28204.3613 2.5857 63.6701
ENERGY: 600000 0.0000 0.0000 0.0000 0.0000 -12963.4896 1970.1917 0.0000 0.0000 999.5732 -9993.7248 174.1115 -10993.2980 -9990.7624 180.0669 -1027.9572 -988.3569 28927.9656 3.7502 3.9083
TCL: Running 100000 steps at 210 kelvin.
TCL: Setting parameter langevinTemp to 210
TCL: Running for 100000 steps
ETITLE: TS BOND ANGLE DIHED IMPRP ELECT VDW BOUNDARY MISC KINETIC TOTAL TEMP POTENTIAL TOTAL3 TEMPAVG PRESSURE GPRESSURE VOLUME PRESSAVG GPRESSAVG
ENERGY: 600000 0.0000 0.0000 0.0000 0.0000 -12963.4896 1970.1917 0.0000 0.0000 999.0374 -9994.2605 174.0182 -10993.2980 -9992.1084 174.0182 -1056.4961 -989.0275 28927.9656 -1056.4961 -989.0275
ENERGY: 700000 0.0000 0.0000 0.0000 0.0000 -12401.0040 1847.5719 0.0000 0.0000 1203.9412 -9349.4909 209.7095 -10553.4321 -9347.7446 210.2077 -90.1121 8.1696 28352.7516 2.9366 2.8074
TCL: Running 100000 steps at 240 kelvin.
TCL: Setting parameter langevinTemp to 240
TCL: Running for 100000 steps
ETITLE: TS BOND ANGLE DIHED IMPRP ELECT VDW BOUNDARY MISC KINETIC TOTAL TEMP POTENTIAL TOTAL3 TEMPAVG PRESSURE GPRESSURE VOLUME PRESSAVG GPRESSAVG
ENERGY: 700000 0.0000 0.0000 0.0000 0.0000 -12401.0040 1847.5719 0.0000 0.0000 1203.3244 -9350.1077 209.6021 -10553.4321 -9348.2292 209.6021 -75.0766 8.6536 28352.7516 -75.0766 8.6536
ENERGY: 800000 0.0000 0.0000 0.0000 0.0000 -11718.6947 1644.9040 0.0000 0.0000 1379.6532 -8694.1376 240.3160 -10073.7908 -8691.9212 239.6603 -309.9155 -196.4532 28892.3141 4.9707 4.7002
TCL: Running 100000 steps at 270 kelvin.
TCL: Setting parameter langevinTemp to 270
TCL: Running for 100000 steps
ETITLE: TS BOND ANGLE DIHED IMPRP ELECT VDW BOUNDARY MISC KINETIC TOTAL TEMP POTENTIAL TOTAL3 TEMPAVG PRESSURE GPRESSURE VOLUME PRESSAVG GPRESSAVG
ENERGY: 800000 0.0000 0.0000 0.0000 0.0000 -11718.6947 1644.9040 0.0000 0.0000 1378.9675 -8694.8233 240.1966 -10073.7908 -8692.5475 240.1966 -275.1975 -196.9580 28892.3141 -275.1975 -196.9580
ENERGY: 900000 0.0000 0.0000 0.0000 0.0000 -11451.9999 1714.7555 0.0000 0.0000 1582.6373 -8154.6070 275.6730 -9737.2443 -8151.5654 269.5763 1315.3435 1444.3433 29084.2227 1.9678 2.0096
TCL: Running 1000000 steps at 300 kelvin.
TCL: Setting parameter langevinTemp to 300
TCL: Running for 1000000 steps
ETITLE: TS BOND ANGLE DIHED IMPRP ELECT VDW BOUNDARY MISC KINETIC TOTAL TEMP POTENTIAL TOTAL3 TEMPAVG PRESSURE GPRESSURE VOLUME PRESSAVG GPRESSAVG
ENERGY: 900000 0.0000 0.0000 0.0000 0.0000 -11451.9999 1714.7555 0.0000 0.0000 1581.8843 -8155.3600 275.5418 -9737.2443 -8152.9942 275.5418 1358.6073 1446.3728 29084.2227 1358.6073 1446.3728
ENERGY: 1100000 0.0000 0.0000 0.0000 0.0000 -10882.1046 1498.7146 0.0000 0.0000 1696.6384 -7686.7516 295.5304 -9383.3900 -7682.6252 300.5788 540.6492 620.3524 29766.2889 4.6044 4.5190
ENERGY: 1300000 0.0000 0.0000 0.0000 0.0000 -10682.8704 1379.3746 0.0000 0.0000 1716.5795 -7586.9163 299.0038 -9303.4958 -7582.4140 299.9523 -378.6920 -274.3666 29984.3868 4.7351 4.9160
ENERGY: 1500000 0.0000 0.0000 0.0000 0.0000 -10791.7702 1455.7692 0.0000 0.0000 1709.6064 -7626.3946 297.7892 -9336.0010 -7623.8376 300.7815 527.1802 540.0173 29923.9879 4.2566 4.3469
ENERGY: 1700000 0.0000 0.0000 0.0000 0.0000 -10830.7442 1456.5788 0.0000 0.0000 1702.8356 -7671.3299 296.6098 -9374.1654 -7666.2256 300.3265 557.0381 631.5016 29648.4007 4.3325 4.1207
ENERGY: 1900000 0.0000 0.0000 0.0000 0.0000 -10639.9897 1386.1101 0.0000 0.0000 1700.3137 -7553.5659 296.1706 -9253.8796 -7548.9165 299.8649 96.2998 154.2203 29743.8244 4.5468 4.3948
TCL: Exiting due to exit command.
