Info: SIMULATION PARAMETERS:
Info: TIMESTEP               2
Info: NUMBER OF STEPS        0
Info: STEPS PER CYCLE        10
Info: PERIODIC CELL BASIS 1  37.38 0 0
Info: PERIODIC CELL BASIS 2  0 34.26 0
Info: PERIODIC CELL BASIS 3  0 0 33.876
Info: PERIODIC CELL CENTER   0 0 0
Info: WRAPPING WATERS AROUND PERIODIC BOUNDARIES ON OUTPUT.
Info: WRAPPING ALL CLUSTERS AROUND PERIODIC BOUNDARIES ON OUTPUT.
Info: FIRST LDB TIMESTEP     50
Info: LAST LDB TIMESTEP     -1
Info: HOM BACKGROUND SCALING 1
Info: PME BACKGROUND SCALING 1
Info: MIN ATOMS PER PATCH    40
Info: EMPTY PATCH LOAD       40 ATOMS
Info: INITIAL TEMPERATURE    300
Info: CENTER OF MASS MOVING INITIALLY? NO
Info: DIELECTRIC             1
Info: EXCLUDE                SCALED ONE-FOUR
Info: 1-4 ELECTROSTATICS SCALED BY 0.833333
Info: MODIFIED 1-4 VDW PARAMETERS WILL BE USED
Info: DCD FILENAME           mobley_6497672_equil.dcd
Info: DCD FREQUENCY          100000
Info: DCD FIRST STEP         100000
Info: DCD FILE WILL CONTAIN UNIT CELL DATA
Info: XST FILENAME           mobley_6497672_equil.xst
Info: XST FREQUENCY          100000
Info: NO VELOCITY DCD OUTPUT
Info: NO FORCE DCD OUTPUT
Info: OUTPUT FILENAME        mobley_6497672_equil
Info: BINARY OUTPUT FILES WILL BE USED
Info: RESTART FILENAME       mobley_6497672_equil.restart
Info: RESTART FREQUENCY      100000
Info: BINARY RESTART FILES WILL BE USED
Info: CUTOFF                 9
Info: PAIRLIST DISTANCE      11
Info: PAIRLIST SHRINK RATE   0.01
Info: PAIRLIST GROW RATE     0.01
Info: PAIRLIST TRIGGER       0.3
Info: PAIRLISTS PER CYCLE    2
Info: PAIRLISTS ENABLED
Info: MARGIN                 8
Info: HYDROGEN GROUP CUTOFF  2.5
Info: PATCH DIMENSION        21.5
Info: ENERGY OUTPUT STEPS    100000
Info: ENERGY EVALUATION STEPS    100000
Info: OUTPUT ENERGY PRECISION 4
Info: CROSSTERM ENERGY INCLUDED IN DIHEDRAL
Info: TIMING OUTPUT STEPS    1000000
Info: PRESSURE OUTPUT STEPS  100000
Info: FIXED ATOMS ACTIVE
Info: LANGEVIN DYNAMICS ACTIVE
Info: LANGEVIN TEMPERATURE   30
Info: LANGEVIN USING BBK INTEGRATOR
Info: LANGEVIN DAMPING COEFFICIENT IS 1 INVERSE PS
Info: LANGEVIN DYNAMICS APPLIED TO HYDROGENS
Info: LANGEVIN PISTON PRESSURE CONTROL ACTIVE
Info:        TARGET PRESSURE IS 1.01325 BAR
Info:     OSCILLATION PERIOD IS 50 FS
Info:             DECAY TIME IS 25 FS
Info:     PISTON TEMPERATURE IS 300 K
Info:       PRESSURE CONTROL IS GROUP-BASED
Info:    INITIAL STRAIN RATE IS 0 0 0
Info:       CELL FLUCTUATION IS ISOTROPIC
Info: PARTICLE MESH EWALD (PME) ACTIVE
Info: PME TOLERANCE               1e-06
Info: PME EWALD COEFFICIENT       0.348832
Info: PME INTERPOLATION ORDER     4
Info: PME GRID DIMENSIONS         40 36 36
Info: PME MAXIMUM GRID SPACING    1
Info: FULL ELECTROSTATIC EVALUATION FREQUENCY      2
Info: USING VERLET I (r-RESPA) MTS SCHEME.
Info: C1 SPLITTING OF LONG RANGE ELECTROSTATICS
Info: PLACING ATOMS IN PATCHES BY HYDROGEN GROUPS
Info: RIGID BONDS TO HYDROGEN : ALL
Info:         ERROR TOLERANCE : 1e-08
Info:          MAX ITERATIONS : 100
Info: RIGID WATER USING SETTLE ALGORITHM
Info: RANDOM NUMBER SEED     1743900832
Info: USE HYDROGEN BONDS?    NO
Info: Using AMBER format force field!
Info: AMBER PARM FILE        mobley_6497672.prmtop
Info: COORDINATE PDB         mobley_6497672.pdb
Info: Exclusions will be read from PARM file!
Info: SCNB (VDW SCALING)     2
Info: USING ARITHMETIC MEAN TO COMBINE L-J SIGMA PARAMETERS
Info: BINARY COORDINATES     mobley_6497672_min.coor
Info: SUMMARY OF PARAMETERS:
Info: 10 BONDS
Info: 11 ANGLES
Info:   11 HARMONIC
Info:   0 COSINE-BASED
Info: 5 DIHEDRAL
Info: 0 IMPROPER
Info: 0 CROSSTERM
Info: 0 VDW
Info: 36 VDW_PAIRS
Info: 0 NBTHOLE_PAIRS
Info: STRUCTURE SUMMARY:
Info: 2903 ATOMS
Info: 2902 BONDS
Info: 15 ANGLES
Info: 17 DIHEDRALS
Info: 0 IMPROPERS
Info: 0 CROSSTERMS
Info: 2931 EXCLUSIONS
Info: 11 FIXED ATOMS
Info: 2898 RIGID BONDS
Info: 6 RIGID BONDS BETWEEN FIXED ATOMS
Info: 5784 DEGREES OF FREEDOM
Info: 969 HYDROGEN GROUPS
Info: 4 ATOMS IN LARGEST HYDROGEN GROUP
Info: 969 MIGRATION GROUPS
Info: 4 ATOMS IN LARGEST MIGRATION GROUP
Info: 5 HYDROGEN GROUPS WITH ALL ATOMS FIXED
Info: TOTAL MASS = 17437.5 amu
Info: TOTAL CHARGE = 3.72529e-08 e
Info: MASS DENSITY = 0.66746 g/cm^3
Info: ATOM DENSITY = 0.0669157 atoms/A^3
Info: ADDED 0 IMPLICIT EXCLUSIONS
Info: NONBONDED TABLE R-SQUARED SPACING: 0.0625
Info: NONBONDED TABLE SIZE: 705 POINTS
Info: REMOVING COM VELOCITY 0.123507 0.0576146 -0.0343122
TCL: Running for 100000 steps
ETITLE: TS BOND ANGLE DIHED IMPRP ELECT VDW BOUNDARY MISC KINETIC TOTAL TEMP POTENTIAL TOTAL3 TEMPAVG PRESSURE GPRESSURE VOLUME PRESSAVG GPRESSAVG
ENERGY: 0 0.0000 0.0000 0.0000 0.0000 -13485.6016 2349.1979 0.0000 0.0000 1720.4715 -9415.9322 299.3709 -11136.4038 -9415.5989 299.3709 357.6867 392.5793 43382.9200 357.6867 392.5793
ENERGY: 100000 0.0000 0.0000 0.0000 0.0000 -14017.0118 2369.8138 0.0000 0.0000 175.3699 -11471.8281 30.5153 -11647.1980 -11471.6183 30.9517 -692.4405 -641.0335 28444.3149 5.5366 5.4938
TCL: Running 100000 steps at 60 kelvin.
TCL: Setting parameter langevinTemp to 60
TCL: Running for 100000 steps
ETITLE: TS BOND ANGLE DIHED IMPRP ELECT VDW BOUNDARY MISC KINETIC TOTAL TEMP POTENTIAL TOTAL3 TEMPAVG PRESSURE GPRESSURE VOLUME PRESSAVG GPRESSAVG
ENERGY: 100000 0.0000 0.0000 0.0000 0.0000 -14017.0118 2369.8138 0.0000 0.0000 175.2868 -11471.9112 30.5008 -11647.1980 -11471.6029 30.5008 -678.0578 -640.9316 28444.3149 -678.0578 -640.9316
ENERGY: 200000 0.0000 0.0000 0.0000 0.0000 -13858.2344 2289.5851 0.0000 0.0000 346.2613 -11222.3880 60.2512 -11568.6493 -11221.3279 59.8323 -992.0266 -920.6143 28382.6724 2.9255 2.9321
TCL: Running 100000 steps at 90 kelvin.
TCL: Setting parameter langevinTemp to 90
TCL: Running for 100000 steps
ETITLE: TS BOND ANGLE DIHED IMPRP ELECT VDW BOUNDARY MISC KINETIC TOTAL TEMP POTENTIAL TOTAL3 TEMPAVG PRESSURE GPRESSURE VOLUME PRESSAVG GPRESSAVG
ENERGY: 200000 0.0000 0.0000 0.0000 0.0000 -13858.2344 2289.5851 0.0000 0.0000 346.0900 -11222.5593 60.2214 -11568.6493 -11221.7584 60.2214 -980.8607 -920.5759 28382.6724 -980.8607 -920.5759
ENERGY: 300000 0.0000 0.0000 0.0000 0.0000 -13968.6725 2508.7099 0.0000 0.0000 525.0340 -10934.9286 91.3586 -11459.9626 -10934.0760 90.1836 1386.5810 1463.5787 28031.3952 4.0224 4.0847
TCL: Running 100000 steps at 120 kelvin.
TCL: Setting parameter langevinTemp to 120
TCL: Running for 100000 steps
ETITLE: TS BOND ANGLE DIHED IMPRP ELECT VDW BOUNDARY MISC KINETIC TOTAL TEMP POTENTIAL TOTAL3 TEMPAVG PRESSURE GPRESSURE VOLUME PRESSAVG GPRESSAVG
ENERGY: 300000 0.0000 0.0000 0.0000 0.0000 -13968.6725 2508.7099 0.0000 0.0000 524.7876 -10935.1750 91.3157 -11459.9626 -10934.1876 91.3157 1414.0191 1463.2658 28031.3952 1414.0191 1463.2658
ENERGY: 400000 0.0000 0.0000 0.0000 0.0000 -13476.1339 2163.4772 0.0000 0.0000 684.9512 -10627.7055 119.1850 -11312.6567 -10626.5228 120.0204 -1286.4848 -1216.1097 28720.3322 4.5345 4.3767
TCL: Running 100000 steps at 150 kelvin.
TCL: Setting parameter langevinTemp to 150
TCL: Running for 100000 steps
ETITLE: TS BOND ANGLE DIHED IMPRP ELECT VDW BOUNDARY MISC KINETIC TOTAL TEMP POTENTIAL TOTAL3 TEMPAVG PRESSURE GPRESSURE VOLUME PRESSAVG GPRESSAVG
ENERGY: 400000 0.0000 0.0000 0.0000 0.0000 -13476.1339 2163.4772 0.0000 0.0000 684.5903 -10628.0664 119.1222 -11312.6567 -10626.5786 119.1222 -1267.4905 -1216.9259 28720.3322 -1267.4905 -1216.9259
ENERGY: 500000 0.0000 0.0000 0.0000 0.0000 -13364.6533 2215.4493 0.0000 0.0000 869.7037 -10279.5002 151.3329 -11149.2039 -10277.2397 150.1784 -210.8890 -203.2661 28830.3398 3.3445 3.2188
TCL: Running 100000 steps at 180 kelvin.
TCL: Setting parameter langevinTemp to 180
TCL: Running for 100000 steps
ETITLE: TS BOND ANGLE DIHED IMPRP ELECT VDW BOUNDARY MISC KINETIC TOTAL TEMP POTENTIAL TOTAL3 TEMPAVG PRESSURE GPRESSURE VOLUME PRESSAVG GPRESSAVG
ENERGY: 500000 0.0000 0.0000 0.0000 0.0000 -13364.6533 2215.4493 0.0000 0.0000 869.2585 -10279.9455 151.2554 -11149.2039 -10278.2422 151.2554 -244.9833 -202.8388 28830.3398 -244.9833 -202.8388
ENERGY: 600000 0.0000 0.0000 0.0000 0.0000 -13123.5878 2297.9346 0.0000 0.0000 1016.4441 -9809.2091 176.8665 -10825.6532 -9807.0578 179.9310 1932.8480 2010.1795 28100.8501 3.2598 3.3258
TCL: Running 100000 steps at 210 kelvin.
TCL: Setting parameter langevinTemp to 210
TCL: Running for 100000 steps
ETITLE: TS BOND ANGLE DIHED IMPRP ELECT VDW BOUNDARY MISC KINETIC TOTAL TEMP POTENTIAL TOTAL3 TEMPAVG PRESSURE GPRESSURE VOLUME PRESSAVG GPRESSAVG
ENERGY: 600000 0.0000 0.0000 0.0000 0.0000 -13123.5878 2297.9346 0.0000 0.0000 1015.8980 -9809.7552 176.7715 -10825.6532 -9808.5462 176.7715 1948.7477 2010.3574 28100.8501 1948.7477 2010.3574
ENERGY: 700000 0.0000 0.0000 0.0000 0.0000 -12158.2259 1717.3511 0.0000 0.0000 1203.1214 -9237.7533 209.3493 -10440.8748 -9235.6295 209.7135 -1505.1903 -1438.4160 28748.0790 5.8886 5.8300
TCL: Running 100000 steps at 240 kelvin.
TCL: Setting parameter langevinTemp to 240
TCL: Running for 100000 steps
ETITLE: TS BOND ANGLE DIHED IMPRP ELECT VDW BOUNDARY MISC KINETIC TOTAL TEMP POTENTIAL TOTAL3 TEMPAVG PRESSURE GPRESSURE VOLUME PRESSAVG GPRESSAVG
ENERGY: 700000 0.0000 0.0000 0.0000 0.0000 -12158.2259 1717.3511 0.0000 0.0000 1202.5187 -9238.3561 209.2444 -10440.8748 -9235.7188 209.2444 -1518.0329 -1441.5629 28748.0790 -1518.0329 -1441.5629
ENERGY: 800000 0.0000 0.0000 0.0000 0.0000 -11763.7506 1740.3417 0.0000 0.0000 1390.4416 -8632.9673 241.9440 -10023.4089 -8630.0849 239.8188 417.6984 560.9290 28130.7261 4.1455 4.0495
TCL: Running 100000 steps at 270 kelvin.
TCL: Setting parameter langevinTemp to 270
TCL: Running for 100000 steps
ETITLE: TS BOND ANGLE DIHED IMPRP ELECT VDW BOUNDARY MISC KINETIC TOTAL TEMP POTENTIAL TOTAL3 TEMPAVG PRESSURE GPRESSURE VOLUME PRESSAVG GPRESSAVG
ENERGY: 800000 0.0000 0.0000 0.0000 0.0000 -11763.7506 1740.3417 0.0000 0.0000 1389.7517 -8633.6572 241.8240 -10023.4089 -8631.4996 241.8240 461.1677 559.3572 28130.7261 461.1677 559.3572
ENERGY: 900000 0.0000 0.0000 0.0000 0.0000 -11096.3189 1537.2974 0.0000 0.0000 1547.6836 -8011.3379 269.3049 -9559.0215 -8009.3570 270.5949 -34.5974 42.3175 29182.9848 3.4296 3.3390
TCL: Running 1000000 steps at 300 kelvin.
TCL: Setting parameter langevinTemp to 300
TCL: Running for 1000000 steps
ETITLE: TS BOND ANGLE DIHED IMPRP ELECT VDW BOUNDARY MISC KINETIC TOTAL TEMP POTENTIAL TOTAL3 TEMPAVG PRESSURE GPRESSURE VOLUME PRESSAVG GPRESSAVG
ENERGY: 900000 0.0000 0.0000 0.0000 0.0000 -11096.3189 1537.2974 0.0000 0.0000 1546.9243 -8012.0972 269.1728 -9559.0215 -8009.8187 269.1728 -55.0163 42.1324 29182.9848 -55.0163 42.1324
ENERGY: 1100000 0.0000 0.0000 0.0000 0.0000 -10573.6768 1419.5283 0.0000 0.0000 1728.4892 -7425.6593 300.7660 -9154.1485 -7422.9446 299.4294 -20.7922 144.8109 30020.1611 3.7066 3.5003
ENERGY: 1300000 0.0000 0.0000 0.0000 0.0000 -10704.5179 1453.8598 0.0000 0.0000 1742.7278 -7507.9304 303.2436 -9250.6581 -7503.8564 300.0666 89.4837 144.6956 29848.2647 3.4332 3.4909
ENERGY: 1500000 0.0000 0.0000 0.0000 0.0000 -10572.3268 1465.2764 0.0000 0.0000 1729.7389 -7377.3115 300.9835 -9107.0504 -7372.4268 300.2625 294.7507 411.9454 30191.9415 2.9937 3.0366
ENERGY: 1700000 0.0000 0.0000 0.0000 0.0000 -10560.3838 1438.6445 0.0000 0.0000 1730.4840 -7391.2553 301.1131 -9121.7393 -7387.0391 300.4887 -84.9012 8.6861 30687.0594 3.1900 3.3212
ENERGY: 1900000 0.0000 0.0000 0.0000 0.0000 -10619.4458 1465.2171 0.0000 0.0000 1725.1498 -7429.0790 300.1849 -9154.2288 -7425.8451 299.8460 668.0923 753.3093 29564.6618 2.3094 2.1041
TCL: Exiting due to exit command.
