Info: SIMULATION PARAMETERS:
Info: TIMESTEP               2
Info: NUMBER OF STEPS        0
Info: STEPS PER CYCLE        10
Info: PERIODIC CELL BASIS 1  34.986 0 0
Info: PERIODIC CELL BASIS 2  0 35.411 0
Info: PERIODIC CELL BASIS 3  0 0 35.644
Info: PERIODIC CELL CENTER   0 0 0
Info: WRAPPING WATERS AROUND PERIODIC BOUNDARIES ON OUTPUT.
Info: WRAPPING ALL CLUSTERS AROUND PERIODIC BOUNDARIES ON OUTPUT.
Info: FIRST LDB TIMESTEP     50
Info: LAST LDB TIMESTEP     -1
Info: HOM BACKGROUND SCALING 1
Info: PME BACKGROUND SCALING 1
Info: MIN ATOMS PER PATCH    40
Info: EMPTY PATCH LOAD       40 ATOMS
Info: INITIAL TEMPERATURE    300
Info: CENTER OF MASS MOVING INITIALLY? NO
Info: DIELECTRIC             1
Info: EXCLUDE                SCALED ONE-FOUR
Info: 1-4 ELECTROSTATICS SCALED BY 0.833333
Info: MODIFIED 1-4 VDW PARAMETERS WILL BE USED
Info: DCD FILENAME           mobley_9055303_equil.dcd
Info: DCD FREQUENCY          100000
Info: DCD FIRST STEP         100000
Info: DCD FILE WILL CONTAIN UNIT CELL DATA
Info: XST FILENAME           mobley_9055303_equil.xst
Info: XST FREQUENCY          100000
Info: NO VELOCITY DCD OUTPUT
Info: NO FORCE DCD OUTPUT
Info: OUTPUT FILENAME        mobley_9055303_equil
Info: BINARY OUTPUT FILES WILL BE USED
Info: RESTART FILENAME       mobley_9055303_equil.restart
Info: RESTART FREQUENCY      100000
Info: BINARY RESTART FILES WILL BE USED
Info: CUTOFF                 9
Info: PAIRLIST DISTANCE      11
Info: PAIRLIST SHRINK RATE   0.01
Info: PAIRLIST GROW RATE     0.01
Info: PAIRLIST TRIGGER       0.3
Info: PAIRLISTS PER CYCLE    2
Info: PAIRLISTS ENABLED
Info: MARGIN                 8
Info: HYDROGEN GROUP CUTOFF  2.5
Info: PATCH DIMENSION        21.5
Info: ENERGY OUTPUT STEPS    100000
Info: ENERGY EVALUATION STEPS    100000
Info: OUTPUT ENERGY PRECISION 4
Info: CROSSTERM ENERGY INCLUDED IN DIHEDRAL
Info: TIMING OUTPUT STEPS    1000000
Info: PRESSURE OUTPUT STEPS  100000
Info: FIXED ATOMS ACTIVE
Info: LANGEVIN DYNAMICS ACTIVE
Info: LANGEVIN TEMPERATURE   30
Info: LANGEVIN USING BBK INTEGRATOR
Info: LANGEVIN DAMPING COEFFICIENT IS 1 INVERSE PS
Info: LANGEVIN DYNAMICS APPLIED TO HYDROGENS
Info: LANGEVIN PISTON PRESSURE CONTROL ACTIVE
Info:        TARGET PRESSURE IS 1.01325 BAR
Info:     OSCILLATION PERIOD IS 50 FS
Info:             DECAY TIME IS 25 FS
Info:     PISTON TEMPERATURE IS 300 K
Info:       PRESSURE CONTROL IS GROUP-BASED
Info:    INITIAL STRAIN RATE IS 0 0 0
Info:       CELL FLUCTUATION IS ISOTROPIC
Info: PARTICLE MESH EWALD (PME) ACTIVE
Info: PME TOLERANCE               1e-06
Info: PME EWALD COEFFICIENT       0.348832
Info: PME INTERPOLATION ORDER     4
Info: PME GRID DIMENSIONS         36 36 36
Info: PME MAXIMUM GRID SPACING    1
Info: FULL ELECTROSTATIC EVALUATION FREQUENCY      2
Info: USING VERLET I (r-RESPA) MTS SCHEME.
Info: C1 SPLITTING OF LONG RANGE ELECTROSTATICS
Info: PLACING ATOMS IN PATCHES BY HYDROGEN GROUPS
Info: RIGID BONDS TO HYDROGEN : ALL
Info:         ERROR TOLERANCE : 1e-08
Info:          MAX ITERATIONS : 100
Info: RIGID WATER USING SETTLE ALGORITHM
Info: RANDOM NUMBER SEED     1743679089
Info: USE HYDROGEN BONDS?    NO
Info: Using AMBER format force field!
Info: AMBER PARM FILE        mobley_9055303.prmtop
Info: COORDINATE PDB         mobley_9055303.pdb
Info: Exclusions will be read from PARM file!
Info: SCNB (VDW SCALING)     2
Info: USING ARITHMETIC MEAN TO COMBINE L-J SIGMA PARAMETERS
Info: BINARY COORDINATES     mobley_9055303_min.coor
Info: SUMMARY OF PARAMETERS:
Info: 3 BONDS
Info: 1 ANGLES
Info:   1 HARMONIC
Info:   0 COSINE-BASED
Info: 0 DIHEDRAL
Info: 0 IMPROPER
Info: 0 CROSSTERM
Info: 0 VDW
Info: 10 VDW_PAIRS
Info: 0 NBTHOLE_PAIRS
Info: STRUCTURE SUMMARY:
Info: 2930 ATOMS
Info: 2929 BONDS
Info: 6 ANGLES
Info: 0 DIHEDRALS
Info: 0 IMPROPERS
Info: 0 CROSSTERMS
Info: 2935 EXCLUSIONS
Info: 5 FIXED ATOMS
Info: 2929 RIGID BONDS
Info: 4 RIGID BONDS BETWEEN FIXED ATOMS
Info: 5850 DEGREES OF FREEDOM
Info: 976 HYDROGEN GROUPS
Info: 5 ATOMS IN LARGEST HYDROGEN GROUP
Info: 976 MIGRATION GROUPS
Info: 5 ATOMS IN LARGEST MIGRATION GROUP
Info: 1 HYDROGEN GROUPS WITH ALL ATOMS FIXED
Info: TOTAL MASS = 17581.6 amu
Info: TOTAL CHARGE = 0.000100002 e
Info: MASS DENSITY = 0.66115 g/cm^3
Info: ATOM DENSITY = 0.0663512 atoms/A^3
Info: ADDED 0 IMPLICIT EXCLUSIONS
Info: NONBONDED TABLE R-SQUARED SPACING: 0.0625
Info: NONBONDED TABLE SIZE: 705 POINTS
Info: REMOVING COM VELOCITY 0.263951 0.0622287 0.0467052
TCL: Running for 100000 steps
ETITLE: TS BOND ANGLE DIHED IMPRP ELECT VDW BOUNDARY MISC KINETIC TOTAL TEMP POTENTIAL TOTAL3 TEMPAVG PRESSURE GPRESSURE VOLUME PRESSAVG GPRESSAVG
ENERGY: 0 0.0000 0.0000 0.0000 0.0000 -13708.7942 2440.4728 0.0000 0.0000 1756.1023 -9512.2191 302.1234 -11268.3214 -9511.8696 302.1234 583.6301 613.3525 44158.9683 583.6301 613.3525
ENERGY: 100000 0.0000 0.0000 0.0000 0.0000 -14088.9533 2414.1422 0.0000 0.0000 178.7955 -11496.0156 30.7603 -11674.8111 -11495.6022 30.9000 -469.7596 -401.2930 29218.3307 4.3638 4.3823
TCL: Running 100000 steps at 60 kelvin.
TCL: Setting parameter langevinTemp to 60
TCL: Running for 100000 steps
ETITLE: TS BOND ANGLE DIHED IMPRP ELECT VDW BOUNDARY MISC KINETIC TOTAL TEMP POTENTIAL TOTAL3 TEMPAVG PRESSURE GPRESSURE VOLUME PRESSAVG GPRESSAVG
ENERGY: 100000 0.0000 0.0000 0.0000 0.0000 -14088.9533 2414.1422 0.0000 0.0000 178.7053 -11496.1058 30.7448 -11674.8111 -11495.6579 30.7448 -443.5184 -401.3854 29218.3307 -443.5184 -401.3854
ENERGY: 200000 0.0000 0.0000 0.0000 0.0000 -13794.5653 2244.9351 0.0000 0.0000 352.6020 -11197.0282 60.6624 -11549.6302 -11196.1921 59.8658 -1327.3972 -1280.8993 29286.9653 3.9693 3.8811
TCL: Running 100000 steps at 90 kelvin.
TCL: Setting parameter langevinTemp to 90
TCL: Running for 100000 steps
ETITLE: TS BOND ANGLE DIHED IMPRP ELECT VDW BOUNDARY MISC KINETIC TOTAL TEMP POTENTIAL TOTAL3 TEMPAVG PRESSURE GPRESSURE VOLUME PRESSAVG GPRESSAVG
ENERGY: 200000 0.0000 0.0000 0.0000 0.0000 -13794.5653 2244.9351 0.0000 0.0000 352.4293 -11197.2009 60.6327 -11549.6302 -11196.4320 60.6327 -1338.8031 -1280.8913 29286.9653 -1338.8031 -1280.8913
ENERGY: 300000 0.0000 0.0000 0.0000 0.0000 -14021.3852 2526.6446 0.0000 0.0000 539.5234 -10955.2172 92.8207 -11494.7406 -10954.3545 90.0510 1224.4224 1274.3624 28742.6190 4.7880 4.8439
TCL: Running 100000 steps at 120 kelvin.
TCL: Setting parameter langevinTemp to 120
TCL: Running for 100000 steps
ETITLE: TS BOND ANGLE DIHED IMPRP ELECT VDW BOUNDARY MISC KINETIC TOTAL TEMP POTENTIAL TOTAL3 TEMPAVG PRESSURE GPRESSURE VOLUME PRESSAVG GPRESSAVG
ENERGY: 300000 0.0000 0.0000 0.0000 0.0000 -14021.3852 2526.6446 0.0000 0.0000 539.2630 -10955.4776 92.7759 -11494.7406 -10954.4263 92.7759 1218.9408 1273.9031 28742.6190 1218.9408 1273.9031
ENERGY: 400000 0.0000 0.0000 0.0000 0.0000 -13807.0547 2402.0624 0.0000 0.0000 682.0344 -10722.9580 117.3386 -11404.9923 -10721.9772 119.7878 535.2017 563.7097 28513.3937 3.2686 3.2412
TCL: Running 100000 steps at 150 kelvin.
TCL: Setting parameter langevinTemp to 150
TCL: Running for 100000 steps
ETITLE: TS BOND ANGLE DIHED IMPRP ELECT VDW BOUNDARY MISC KINETIC TOTAL TEMP POTENTIAL TOTAL3 TEMPAVG PRESSURE GPRESSURE VOLUME PRESSAVG GPRESSAVG
ENERGY: 400000 0.0000 0.0000 0.0000 0.0000 -13807.0547 2402.0624 0.0000 0.0000 681.6698 -10723.3225 117.2758 -11404.9923 -10721.9820 117.2758 514.8170 563.4071 28513.3937 514.8170 563.4071
ENERGY: 500000 0.0000 0.0000 0.0000 0.0000 -13442.7626 2180.8727 0.0000 0.0000 886.3222 -10375.5677 152.4847 -11261.8899 -10373.0742 149.6653 -826.2217 -740.5156 28822.9267 5.8902 5.7131
TCL: Running 100000 steps at 180 kelvin.
TCL: Setting parameter langevinTemp to 180
TCL: Running for 100000 steps
ETITLE: TS BOND ANGLE DIHED IMPRP ELECT VDW BOUNDARY MISC KINETIC TOTAL TEMP POTENTIAL TOTAL3 TEMPAVG PRESSURE GPRESSURE VOLUME PRESSAVG GPRESSAVG
ENERGY: 500000 0.0000 0.0000 0.0000 0.0000 -13442.7626 2180.8727 0.0000 0.0000 885.9064 -10375.9835 152.4131 -11261.8899 -10373.9670 152.4131 -782.5157 -739.4261 28822.9267 -782.5157 -739.4261
ENERGY: 600000 0.0000 0.0000 0.0000 0.0000 -12984.9681 2045.1127 0.0000 0.0000 1067.8543 -9872.0010 183.7158 -10939.8554 -9870.1317 179.8567 -565.4412 -485.5491 28609.5020 3.9939 3.8254
TCL: Running 100000 steps at 210 kelvin.
TCL: Setting parameter langevinTemp to 210
TCL: Running for 100000 steps
ETITLE: TS BOND ANGLE DIHED IMPRP ELECT VDW BOUNDARY MISC KINETIC TOTAL TEMP POTENTIAL TOTAL3 TEMPAVG PRESSURE GPRESSURE VOLUME PRESSAVG GPRESSAVG
ENERGY: 600000 0.0000 0.0000 0.0000 0.0000 -12984.9681 2045.1127 0.0000 0.0000 1067.3219 -9872.5334 183.6242 -10939.8554 -9870.7244 183.6242 -547.4801 -486.5448 28609.5020 -547.4801 -486.5448
ENERGY: 700000 0.0000 0.0000 0.0000 0.0000 -12432.2936 1954.3835 0.0000 0.0000 1284.7570 -9193.1532 221.0322 -10477.9101 -9189.0665 210.0462 628.0796 683.0277 28362.0702 2.8837 2.7956
TCL: Running 100000 steps at 240 kelvin.
TCL: Setting parameter langevinTemp to 240
TCL: Running for 100000 steps
ETITLE: TS BOND ANGLE DIHED IMPRP ELECT VDW BOUNDARY MISC KINETIC TOTAL TEMP POTENTIAL TOTAL3 TEMPAVG PRESSURE GPRESSURE VOLUME PRESSAVG GPRESSAVG
ENERGY: 700000 0.0000 0.0000 0.0000 0.0000 -12432.2936 1954.3835 0.0000 0.0000 1284.1482 -9193.7620 220.9274 -10477.9101 -9191.8829 220.9274 620.6536 684.1565 28362.0702 620.6536 684.1565
ENERGY: 800000 0.0000 0.0000 0.0000 0.0000 -11746.8791 1751.1148 0.0000 0.0000 1418.7039 -8577.0603 244.0767 -9995.7642 -8574.7823 240.4824 403.2644 500.7829 28865.5337 4.3592 4.3446
TCL: Running 100000 steps at 270 kelvin.
TCL: Setting parameter langevinTemp to 270
TCL: Running for 100000 steps
ETITLE: TS BOND ANGLE DIHED IMPRP ELECT VDW BOUNDARY MISC KINETIC TOTAL TEMP POTENTIAL TOTAL3 TEMPAVG PRESSURE GPRESSURE VOLUME PRESSAVG GPRESSAVG
ENERGY: 800000 0.0000 0.0000 0.0000 0.0000 -11746.8791 1751.1148 0.0000 0.0000 1417.9938 -8577.7704 243.9545 -9995.7642 -8575.3894 243.9545 416.7361 500.0853 28865.5337 416.7361 500.0853
ENERGY: 900000 0.0000 0.0000 0.0000 0.0000 -11230.0078 1600.5130 0.0000 0.0000 1569.5043 -8059.9905 270.0207 -9629.4948 -8055.0784 269.8249 37.4268 124.6713 29730.4677 3.5283 3.4574
TCL: Running 1000000 steps at 300 kelvin.
TCL: Setting parameter langevinTemp to 300
TCL: Running for 1000000 steps
ETITLE: TS BOND ANGLE DIHED IMPRP ELECT VDW BOUNDARY MISC KINETIC TOTAL TEMP POTENTIAL TOTAL3 TEMPAVG PRESSURE GPRESSURE VOLUME PRESSAVG GPRESSAVG
ENERGY: 900000 0.0000 0.0000 0.0000 0.0000 -11230.0078 1600.5130 0.0000 0.0000 1568.7435 -8060.7513 269.8898 -9629.4948 -8059.0696 269.8898 36.9961 126.1118 29730.4677 36.9961 126.1118
ENERGY: 1100000 0.0000 0.0000 0.0000 0.0000 -10665.3061 1411.5088 0.0000 0.0000 1795.4255 -7458.3718 308.8886 -9253.7973 -7453.8554 300.2895 -301.9049 -195.7047 30144.0393 1.9340 1.9519
ENERGY: 1300000 0.0000 0.0000 0.0000 0.0000 -10736.6478 1496.7852 0.0000 0.0000 1761.4222 -7478.4404 303.0386 -9239.8626 -7475.9916 299.6752 406.0257 497.5964 30118.3792 2.0992 2.1251
ENERGY: 1500000 0.0000 0.0000 0.0000 0.0000 -10770.6870 1466.9421 0.0000 0.0000 1731.7632 -7571.9817 297.9360 -9303.7449 -7569.4957 300.4078 -92.8225 -15.0845 30055.9214 3.1821 3.0291
ENERGY: 1700000 0.0000 0.0000 0.0000 0.0000 -10781.4132 1527.9937 0.0000 0.0000 1709.0091 -7544.4104 294.0214 -9253.4195 -7537.5191 299.7730 513.2214 624.6667 30277.5354 4.3169 4.2555
ENERGY: 1900000 0.0000 0.0000 0.0000 0.0000 -10586.7947 1427.5702 0.0000 0.0000 1749.2674 -7409.9571 300.9475 -9159.2245 -7406.3565 300.1003 -46.9247 30.1679 30476.6533 2.3310 2.5084
TCL: Exiting due to exit command.
