Info: SIMULATION PARAMETERS:
Info: TIMESTEP               2
Info: NUMBER OF STEPS        0
Info: STEPS PER CYCLE        10
Info: PERIODIC CELL BASIS 1  36.592 0 0
Info: PERIODIC CELL BASIS 2  0 35.411 0
Info: PERIODIC CELL BASIS 3  0 0 34.229
Info: PERIODIC CELL CENTER   0 0 0
Info: WRAPPING WATERS AROUND PERIODIC BOUNDARIES ON OUTPUT.
Info: WRAPPING ALL CLUSTERS AROUND PERIODIC BOUNDARIES ON OUTPUT.
Info: FIRST LDB TIMESTEP     50
Info: LAST LDB TIMESTEP     -1
Info: HOM BACKGROUND SCALING 1
Info: PME BACKGROUND SCALING 1
Info: MIN ATOMS PER PATCH    40
Info: EMPTY PATCH LOAD       40 ATOMS
Info: INITIAL TEMPERATURE    300
Info: CENTER OF MASS MOVING INITIALLY? NO
Info: DIELECTRIC             1
Info: EXCLUDE                SCALED ONE-FOUR
Info: 1-4 ELECTROSTATICS SCALED BY 0.833333
Info: MODIFIED 1-4 VDW PARAMETERS WILL BE USED
Info: DCD FILENAME           mobley_1803862_equil.dcd
Info: DCD FREQUENCY          100000
Info: DCD FIRST STEP         100000
Info: DCD FILE WILL CONTAIN UNIT CELL DATA
Info: XST FILENAME           mobley_1803862_equil.xst
Info: XST FREQUENCY          100000
Info: NO VELOCITY DCD OUTPUT
Info: NO FORCE DCD OUTPUT
Info: OUTPUT FILENAME        mobley_1803862_equil
Info: BINARY OUTPUT FILES WILL BE USED
Info: RESTART FILENAME       mobley_1803862_equil.restart
Info: RESTART FREQUENCY      100000
Info: BINARY RESTART FILES WILL BE USED
Info: CUTOFF                 9
Info: PAIRLIST DISTANCE      11
Info: PAIRLIST SHRINK RATE   0.01
Info: PAIRLIST GROW RATE     0.01
Info: PAIRLIST TRIGGER       0.3
Info: PAIRLISTS PER CYCLE    2
Info: PAIRLISTS ENABLED
Info: MARGIN                 8
Info: HYDROGEN GROUP CUTOFF  2.5
Info: PATCH DIMENSION        21.5
Info: ENERGY OUTPUT STEPS    100000
Info: ENERGY EVALUATION STEPS    100000
Info: OUTPUT ENERGY PRECISION 4
Info: CROSSTERM ENERGY INCLUDED IN DIHEDRAL
Info: TIMING OUTPUT STEPS    1000000
Info: PRESSURE OUTPUT STEPS  100000
Info: FIXED ATOMS ACTIVE
Info: LANGEVIN DYNAMICS ACTIVE
Info: LANGEVIN TEMPERATURE   30
Info: LANGEVIN USING BBK INTEGRATOR
Info: LANGEVIN DAMPING COEFFICIENT IS 1 INVERSE PS
Info: LANGEVIN DYNAMICS APPLIED TO HYDROGENS
Info: LANGEVIN PISTON PRESSURE CONTROL ACTIVE
Info:        TARGET PRESSURE IS 1.01325 BAR
Info:     OSCILLATION PERIOD IS 50 FS
Info:             DECAY TIME IS 25 FS
Info:     PISTON TEMPERATURE IS 300 K
Info:       PRESSURE CONTROL IS GROUP-BASED
Info:    INITIAL STRAIN RATE IS 0 0 0
Info:       CELL FLUCTUATION IS ISOTROPIC
Info: PARTICLE MESH EWALD (PME) ACTIVE
Info: PME TOLERANCE               1e-06
Info: PME EWALD COEFFICIENT       0.348832
Info: PME INTERPOLATION ORDER     4
Info: PME GRID DIMENSIONS         40 36 36
Info: PME MAXIMUM GRID SPACING    1
Info: FULL ELECTROSTATIC EVALUATION FREQUENCY      2
Info: USING VERLET I (r-RESPA) MTS SCHEME.
Info: C1 SPLITTING OF LONG RANGE ELECTROSTATICS
Info: PLACING ATOMS IN PATCHES BY HYDROGEN GROUPS
Info: RIGID BONDS TO HYDROGEN : ALL
Info:         ERROR TOLERANCE : 1e-08
Info:          MAX ITERATIONS : 100
Info: RIGID WATER USING SETTLE ALGORITHM
Info: RANDOM NUMBER SEED     1744085454
Info: USE HYDROGEN BONDS?    NO
Info: Using AMBER format force field!
Info: AMBER PARM FILE        mobley_1803862.prmtop
Info: COORDINATE PDB         mobley_1803862.pdb
Info: Exclusions will be read from PARM file!
Info: SCNB (VDW SCALING)     2
Info: USING ARITHMETIC MEAN TO COMBINE L-J SIGMA PARAMETERS
Info: BINARY COORDINATES     mobley_1803862_min.coor
Info: SUMMARY OF PARAMETERS:
Info: 4 BONDS
Info: 3 ANGLES
Info:   3 HARMONIC
Info:   0 COSINE-BASED
Info: 5 DIHEDRAL
Info: 0 IMPROPER
Info: 0 CROSSTERM
Info: 0 VDW
Info: 10 VDW_PAIRS
Info: 0 NBTHOLE_PAIRS
Info: STRUCTURE SUMMARY:
Info: 2990 ATOMS
Info: 2989 BONDS
Info: 30 ANGLES
Info: 40 DIHEDRALS
Info: 0 IMPROPERS
Info: 0 CROSSTERMS
Info: 3055 EXCLUSIONS
Info: 17 FIXED ATOMS
Info: 2985 RIGID BONDS
Info: 12 RIGID BONDS BETWEEN FIXED ATOMS
Info: 5946 DEGREES OF FREEDOM
Info: 996 HYDROGEN GROUPS
Info: 4 ATOMS IN LARGEST HYDROGEN GROUP
Info: 996 MIGRATION GROUPS
Info: 4 ATOMS IN LARGEST MIGRATION GROUP
Info: 5 HYDROGEN GROUPS WITH ALL ATOMS FIXED
Info: TOTAL MASS = 17926 amu
Info: TOTAL CHARGE = -0.000100005 e
Info: MASS DENSITY = 0.671157 g/cm^3
Info: ATOM DENSITY = 0.0674144 atoms/A^3
Info: ADDED 0 IMPLICIT EXCLUSIONS
Info: NONBONDED TABLE R-SQUARED SPACING: 0.0625
Info: NONBONDED TABLE SIZE: 705 POINTS
Info: REMOVING COM VELOCITY 0.0135797 0.08578 0.204189
TCL: Running for 100000 steps
ETITLE: TS BOND ANGLE DIHED IMPRP ELECT VDW BOUNDARY MISC KINETIC TOTAL TEMP POTENTIAL TOTAL3 TEMPAVG PRESSURE GPRESSURE VOLUME PRESSAVG GPRESSAVG
ENERGY: 0 0.0000 0.0000 0.0000 0.0000 -13793.5834 2416.6153 0.0000 0.0000 1758.1744 -9618.7937 297.5962 -11376.9681 -9618.4531 297.5962 320.1893 349.0366 44352.5455 320.1893 349.0366
ENERGY: 100000 0.0000 0.0000 0.0000 0.0000 -14287.7448 2392.3837 0.0000 0.0000 180.6175 -11714.7437 30.5721 -11895.3611 -11714.0620 30.8761 -808.9797 -769.1229 29193.4985 3.9996 4.0049
TCL: Running 100000 steps at 60 kelvin.
TCL: Setting parameter langevinTemp to 60
TCL: Running for 100000 steps
ETITLE: TS BOND ANGLE DIHED IMPRP ELECT VDW BOUNDARY MISC KINETIC TOTAL TEMP POTENTIAL TOTAL3 TEMPAVG PRESSURE GPRESSURE VOLUME PRESSAVG GPRESSAVG
ENERGY: 100000 0.0000 0.0000 0.0000 0.0000 -14287.7448 2392.3837 0.0000 0.0000 180.5304 -11714.8307 30.5574 -11895.3611 -11714.4085 30.5574 -818.5007 -768.9721 29193.4985 -818.5007 -768.9721
ENERGY: 200000 0.0000 0.0000 0.0000 0.0000 -14268.7156 2456.8001 0.0000 0.0000 356.4923 -11455.4232 60.3414 -11811.9156 -11454.0401 59.9296 -5.3659 71.1854 29182.7322 4.2860 4.4020
TCL: Running 100000 steps at 90 kelvin.
TCL: Setting parameter langevinTemp to 90
TCL: Running for 100000 steps
ETITLE: TS BOND ANGLE DIHED IMPRP ELECT VDW BOUNDARY MISC KINETIC TOTAL TEMP POTENTIAL TOTAL3 TEMPAVG PRESSURE GPRESSURE VOLUME PRESSAVG GPRESSAVG
ENERGY: 200000 0.0000 0.0000 0.0000 0.0000 -14268.7156 2456.8001 0.0000 0.0000 356.3163 -11455.5992 60.3117 -11811.9156 -11454.8759 60.3117 23.6038 71.5786 29182.7322 23.6038 71.5786
ENERGY: 300000 0.0000 0.0000 0.0000 0.0000 -14169.4980 2439.5724 0.0000 0.0000 510.3907 -11219.5350 86.3909 -11729.9257 -11218.4610 89.8737 47.3482 110.8548 29101.1852 4.9483 4.8827
TCL: Running 100000 steps at 120 kelvin.
TCL: Setting parameter langevinTemp to 120
TCL: Running for 100000 steps
ETITLE: TS BOND ANGLE DIHED IMPRP ELECT VDW BOUNDARY MISC KINETIC TOTAL TEMP POTENTIAL TOTAL3 TEMPAVG PRESSURE GPRESSURE VOLUME PRESSAVG GPRESSAVG
ENERGY: 300000 0.0000 0.0000 0.0000 0.0000 -14169.4980 2439.5724 0.0000 0.0000 510.1209 -11219.8048 86.3453 -11729.9257 -11218.6972 86.3453 57.8200 111.0988 29101.1852 57.8200 111.0988
ENERGY: 400000 0.0000 0.0000 0.0000 0.0000 -14102.5361 2503.9908 0.0000 0.0000 691.9956 -10906.5497 117.1302 -11598.5453 -10904.6961 119.7147 1053.5327 1069.7611 29123.3476 3.8356 3.8239
TCL: Running 100000 steps at 150 kelvin.
TCL: Setting parameter langevinTemp to 150
TCL: Running for 100000 steps
ETITLE: TS BOND ANGLE DIHED IMPRP ELECT VDW BOUNDARY MISC KINETIC TOTAL TEMP POTENTIAL TOTAL3 TEMPAVG PRESSURE GPRESSURE VOLUME PRESSAVG GPRESSAVG
ENERGY: 400000 0.0000 0.0000 0.0000 0.0000 -14102.5361 2503.9908 0.0000 0.0000 691.6431 -10906.9021 117.0705 -11598.5453 -10905.6088 117.0705 1025.6392 1070.1337 29123.3476 1025.6392 1070.1337
ENERGY: 500000 0.0000 0.0000 0.0000 0.0000 -13523.8184 2125.7274 0.0000 0.0000 877.5923 -10520.4986 148.5451 -11398.0909 -10516.7619 149.8779 -1193.2376 -1131.5527 29299.5021 1.6638 1.5322
TCL: Running 100000 steps at 180 kelvin.
TCL: Setting parameter langevinTemp to 180
TCL: Running for 100000 steps
ETITLE: TS BOND ANGLE DIHED IMPRP ELECT VDW BOUNDARY MISC KINETIC TOTAL TEMP POTENTIAL TOTAL3 TEMPAVG PRESSURE GPRESSURE VOLUME PRESSAVG GPRESSAVG
ENERGY: 500000 0.0000 0.0000 0.0000 0.0000 -13523.8184 2125.7274 0.0000 0.0000 877.1607 -10520.9303 148.4720 -11398.0909 -10519.0056 148.4720 -1166.7314 -1129.1864 29299.5021 -1166.7314 -1129.1864
ENERGY: 600000 0.0000 0.0000 0.0000 0.0000 -13259.0103 2160.5858 0.0000 0.0000 1066.0481 -10032.3764 180.4439 -11098.4246 -10030.8275 179.8559 506.2445 539.3805 28772.1524 4.7237 4.7984
TCL: Running 100000 steps at 210 kelvin.
TCL: Setting parameter langevinTemp to 210
TCL: Running for 100000 steps
ETITLE: TS BOND ANGLE DIHED IMPRP ELECT VDW BOUNDARY MISC KINETIC TOTAL TEMP POTENTIAL TOTAL3 TEMPAVG PRESSURE GPRESSURE VOLUME PRESSAVG GPRESSAVG
ENERGY: 600000 0.0000 0.0000 0.0000 0.0000 -13259.0103 2160.5858 0.0000 0.0000 1065.5423 -10032.8822 180.3583 -11098.4246 -10030.8832 180.3583 470.1985 539.7482 28772.1524 470.1985 539.7482
ENERGY: 700000 0.0000 0.0000 0.0000 0.0000 -12487.0438 1817.0031 0.0000 0.0000 1250.0568 -9419.9839 211.5900 -10670.0407 -9418.3122 209.5960 -1079.2236 -988.6377 29412.9303 2.8463 2.8901
TCL: Running 100000 steps at 240 kelvin.
TCL: Setting parameter langevinTemp to 240
TCL: Running for 100000 steps
ETITLE: TS BOND ANGLE DIHED IMPRP ELECT VDW BOUNDARY MISC KINETIC TOTAL TEMP POTENTIAL TOTAL3 TEMPAVG PRESSURE GPRESSURE VOLUME PRESSAVG GPRESSAVG
ENERGY: 700000 0.0000 0.0000 0.0000 0.0000 -12487.0438 1817.0031 0.0000 0.0000 1249.4434 -9420.5974 211.4862 -10670.0407 -9418.9263 211.4862 -1071.4010 -989.8887 29412.9303 -1071.4010 -989.8887
ENERGY: 800000 0.0000 0.0000 0.0000 0.0000 -11845.3055 1700.3391 0.0000 0.0000 1419.7711 -8725.1953 240.3166 -10144.9665 -8722.9882 239.5792 -265.6180 -225.0359 29922.2680 3.5020 3.3241
TCL: Running 100000 steps at 270 kelvin.
TCL: Setting parameter langevinTemp to 270
TCL: Running for 100000 steps
ETITLE: TS BOND ANGLE DIHED IMPRP ELECT VDW BOUNDARY MISC KINETIC TOTAL TEMP POTENTIAL TOTAL3 TEMPAVG PRESSURE GPRESSURE VOLUME PRESSAVG GPRESSAVG
ENERGY: 800000 0.0000 0.0000 0.0000 0.0000 -11845.3055 1700.3391 0.0000 0.0000 1419.0771 -8725.8893 240.1992 -10144.9665 -8723.2322 240.1992 -304.1669 -226.3974 29922.2680 -304.1669 -226.3974
ENERGY: 900000 0.0000 0.0000 0.0000 0.0000 -11288.0241 1540.9539 0.0000 0.0000 1564.4899 -8182.5804 264.8123 -9747.0702 -8180.0310 269.5469 -291.5556 -186.6863 29827.7990 3.7302 3.6574
TCL: Running 1000000 steps at 300 kelvin.
TCL: Setting parameter langevinTemp to 300
TCL: Running for 1000000 steps
ETITLE: TS BOND ANGLE DIHED IMPRP ELECT VDW BOUNDARY MISC KINETIC TOTAL TEMP POTENTIAL TOTAL3 TEMPAVG PRESSURE GPRESSURE VOLUME PRESSAVG GPRESSAVG
ENERGY: 900000 0.0000 0.0000 0.0000 0.0000 -11288.0241 1540.9539 0.0000 0.0000 1563.6717 -8183.3985 264.6739 -9747.0702 -8180.9979 264.6739 -277.1401 -188.4863 29827.7990 -277.1401 -188.4863
ENERGY: 1100000 0.0000 0.0000 0.0000 0.0000 -10822.4875 1424.5039 0.0000 0.0000 1769.3011 -7628.6825 299.4796 -9397.9836 -7625.6995 300.4032 -202.4623 -68.6917 30611.3503 3.5811 3.4668
ENERGY: 1300000 0.0000 0.0000 0.0000 0.0000 -10780.4532 1383.8945 0.0000 0.0000 1760.6360 -7635.9227 298.0129 -9396.5587 -7632.4366 300.8253 -730.4918 -637.2679 30956.4743 2.7226 2.5140
ENERGY: 1500000 0.0000 0.0000 0.0000 0.0000 -10731.6725 1355.2374 0.0000 0.0000 1781.4928 -7594.9423 301.5432 -9376.4351 -7593.5072 299.9117 -757.4764 -617.3471 30646.0029 2.9604 2.7498
ENERGY: 1700000 0.0000 0.0000 0.0000 0.0000 -10774.5644 1419.4267 0.0000 0.0000 1757.9996 -7597.1381 297.5667 -9355.1378 -7595.0379 300.0968 -141.9194 -29.6447 30592.3928 2.5481 2.3504
ENERGY: 1900000 0.0000 0.0000 0.0000 0.0000 -10843.5479 1515.5362 0.0000 0.0000 1749.7038 -7578.3079 296.1625 -9328.0117 -7575.7426 300.4593 553.8187 664.0084 30811.9693 2.7014 2.8050
TCL: Exiting due to exit command.
