Info: SIMULATION PARAMETERS:
Info: TIMESTEP               2
Info: NUMBER OF STEPS        0
Info: STEPS PER CYCLE        10
Info: PERIODIC CELL BASIS 1  37.435 0 0
Info: PERIODIC CELL BASIS 2  0 36.451 0
Info: PERIODIC CELL BASIS 3  0 0 31.855
Info: PERIODIC CELL CENTER   0 0 0
Info: WRAPPING WATERS AROUND PERIODIC BOUNDARIES ON OUTPUT.
Info: WRAPPING ALL CLUSTERS AROUND PERIODIC BOUNDARIES ON OUTPUT.
Info: FIRST LDB TIMESTEP     50
Info: LAST LDB TIMESTEP     -1
Info: HOM BACKGROUND SCALING 1
Info: PME BACKGROUND SCALING 1
Info: MIN ATOMS PER PATCH    40
Info: EMPTY PATCH LOAD       40 ATOMS
Info: INITIAL TEMPERATURE    300
Info: CENTER OF MASS MOVING INITIALLY? NO
Info: DIELECTRIC             1
Info: EXCLUDE                SCALED ONE-FOUR
Info: 1-4 ELECTROSTATICS SCALED BY 0.833333
Info: MODIFIED 1-4 VDW PARAMETERS WILL BE USED
Info: DCD FILENAME           mobley_5571660_equil.dcd
Info: DCD FREQUENCY          100000
Info: DCD FIRST STEP         100000
Info: DCD FILE WILL CONTAIN UNIT CELL DATA
Info: XST FILENAME           mobley_5571660_equil.xst
Info: XST FREQUENCY          100000
Info: NO VELOCITY DCD OUTPUT
Info: NO FORCE DCD OUTPUT
Info: OUTPUT FILENAME        mobley_5571660_equil
Info: BINARY OUTPUT FILES WILL BE USED
Info: RESTART FILENAME       mobley_5571660_equil.restart
Info: RESTART FREQUENCY      100000
Info: BINARY RESTART FILES WILL BE USED
Info: CUTOFF                 9
Info: PAIRLIST DISTANCE      11
Info: PAIRLIST SHRINK RATE   0.01
Info: PAIRLIST GROW RATE     0.01
Info: PAIRLIST TRIGGER       0.3
Info: PAIRLISTS PER CYCLE    2
Info: PAIRLISTS ENABLED
Info: MARGIN                 8
Info: HYDROGEN GROUP CUTOFF  2.5
Info: PATCH DIMENSION        21.5
Info: ENERGY OUTPUT STEPS    100000
Info: ENERGY EVALUATION STEPS    100000
Info: OUTPUT ENERGY PRECISION 4
Info: CROSSTERM ENERGY INCLUDED IN DIHEDRAL
Info: TIMING OUTPUT STEPS    1000000
Info: PRESSURE OUTPUT STEPS  100000
Info: FIXED ATOMS ACTIVE
Info: LANGEVIN DYNAMICS ACTIVE
Info: LANGEVIN TEMPERATURE   30
Info: LANGEVIN USING BBK INTEGRATOR
Info: LANGEVIN DAMPING COEFFICIENT IS 1 INVERSE PS
Info: LANGEVIN DYNAMICS APPLIED TO HYDROGENS
Info: LANGEVIN PISTON PRESSURE CONTROL ACTIVE
Info:        TARGET PRESSURE IS 1.01325 BAR
Info:     OSCILLATION PERIOD IS 50 FS
Info:             DECAY TIME IS 25 FS
Info:     PISTON TEMPERATURE IS 300 K
Info:       PRESSURE CONTROL IS GROUP-BASED
Info:    INITIAL STRAIN RATE IS 0 0 0
Info:       CELL FLUCTUATION IS ISOTROPIC
Info: PARTICLE MESH EWALD (PME) ACTIVE
Info: PME TOLERANCE               1e-06
Info: PME EWALD COEFFICIENT       0.348832
Info: PME INTERPOLATION ORDER     4
Info: PME GRID DIMENSIONS         40 40 32
Info: PME MAXIMUM GRID SPACING    1
Info: FULL ELECTROSTATIC EVALUATION FREQUENCY      2
Info: USING VERLET I (r-RESPA) MTS SCHEME.
Info: C1 SPLITTING OF LONG RANGE ELECTROSTATICS
Info: PLACING ATOMS IN PATCHES BY HYDROGEN GROUPS
Info: RIGID BONDS TO HYDROGEN : ALL
Info:         ERROR TOLERANCE : 1e-08
Info:          MAX ITERATIONS : 100
Info: RIGID WATER USING SETTLE ALGORITHM
Info: RANDOM NUMBER SEED     1743764212
Info: USE HYDROGEN BONDS?    NO
Info: Using AMBER format force field!
Info: AMBER PARM FILE        mobley_5571660.prmtop
Info: COORDINATE PDB         mobley_5571660.pdb
Info: Exclusions will be read from PARM file!
Info: SCNB (VDW SCALING)     2
Info: USING ARITHMETIC MEAN TO COMBINE L-J SIGMA PARAMETERS
Info: BINARY COORDINATES     mobley_5571660_min.coor
Info: SUMMARY OF PARAMETERS:
Info: 8 BONDS
Info: 8 ANGLES
Info:   8 HARMONIC
Info:   0 COSINE-BASED
Info: 4 DIHEDRAL
Info: 0 IMPROPER
Info: 0 CROSSTERM
Info: 0 VDW
Info: 36 VDW_PAIRS
Info: 0 NBTHOLE_PAIRS
Info: STRUCTURE SUMMARY:
Info: 2963 ATOMS
Info: 2963 BONDS
Info: 33 ANGLES
Info: 47 DIHEDRALS
Info: 0 IMPROPERS
Info: 0 CROSSTERMS
Info: 3033 EXCLUSIONS
Info: 20 FIXED ATOMS
Info: 2954 RIGID BONDS
Info: 11 RIGID BONDS BETWEEN FIXED ATOMS
Info: 5886 DEGREES OF FREEDOM
Info: 990 HYDROGEN GROUPS
Info: 4 ATOMS IN LARGEST HYDROGEN GROUP
Info: 990 MIGRATION GROUPS
Info: 4 ATOMS IN LARGEST MIGRATION GROUP
Info: 9 HYDROGEN GROUPS WITH ALL ATOMS FIXED
Info: TOTAL MASS = 17794.9 amu
Info: TOTAL CHARGE = -9.99719e-05 e
Info: MASS DENSITY = 0.679813 g/cm^3
Info: ATOM DENSITY = 0.0681658 atoms/A^3
Info: ADDED 0 IMPLICIT EXCLUSIONS
Info: NONBONDED TABLE R-SQUARED SPACING: 0.0625
Info: NONBONDED TABLE SIZE: 705 POINTS
Info: REMOVING COM VELOCITY 0.039107 -0.207431 0.016059
TCL: Running for 100000 steps
ETITLE: TS BOND ANGLE DIHED IMPRP ELECT VDW BOUNDARY MISC KINETIC TOTAL TEMP POTENTIAL TOTAL3 TEMPAVG PRESSURE GPRESSURE VOLUME PRESSAVG GPRESSAVG
ENERGY: 0 0.0000 0.0000 0.0000 0.0000 -13788.3136 2357.7102 0.0000 0.0000 1753.3299 -9677.2735 299.8015 -11430.6034 -9676.9181 299.8015 -50.5907 -17.2543 43467.5232 -50.5907 -17.2543
ENERGY: 100000 0.0000 0.0000 0.0000 0.0000 -14307.1837 2477.3964 0.0000 0.0000 182.7766 -11647.0107 31.2529 -11829.7873 -11646.5645 30.8805 -333.4696 -290.0046 30281.2082 4.0185 4.0587
TCL: Running 100000 steps at 60 kelvin.
TCL: Setting parameter langevinTemp to 60
TCL: Running for 100000 steps
ETITLE: TS BOND ANGLE DIHED IMPRP ELECT VDW BOUNDARY MISC KINETIC TOTAL TEMP POTENTIAL TOTAL3 TEMPAVG PRESSURE GPRESSURE VOLUME PRESSAVG GPRESSAVG
ENERGY: 100000 0.0000 0.0000 0.0000 0.0000 -14307.1837 2477.3964 0.0000 0.0000 182.6913 -11647.0959 31.2384 -11829.7873 -11646.7564 31.2384 -347.3007 -290.0399 30281.2082 -347.3007 -290.0399
ENERGY: 200000 0.0000 0.0000 0.0000 0.0000 -14159.2920 2403.2162 0.0000 0.0000 343.7621 -11412.3137 58.7798 -11756.0758 -11411.5949 59.9267 -473.3934 -432.7739 29896.4183 4.5867 4.5692
TCL: Running 100000 steps at 90 kelvin.
TCL: Setting parameter langevinTemp to 90
TCL: Running for 100000 steps
ETITLE: TS BOND ANGLE DIHED IMPRP ELECT VDW BOUNDARY MISC KINETIC TOTAL TEMP POTENTIAL TOTAL3 TEMPAVG PRESSURE GPRESSURE VOLUME PRESSAVG GPRESSAVG
ENERGY: 200000 0.0000 0.0000 0.0000 0.0000 -14159.2920 2403.2162 0.0000 0.0000 343.5951 -11412.4807 58.7512 -11756.0758 -11411.7634 58.7512 -492.2254 -433.1217 29896.4183 -492.2254 -433.1217
ENERGY: 300000 0.0000 0.0000 0.0000 0.0000 -14050.2261 2383.4714 0.0000 0.0000 524.8719 -11141.8827 89.7477 -11666.7546 -11140.4863 90.0594 -269.8422 -201.3388 29554.4475 2.8851 2.9135
TCL: Running 100000 steps at 120 kelvin.
TCL: Setting parameter langevinTemp to 120
TCL: Running for 100000 steps
ETITLE: TS BOND ANGLE DIHED IMPRP ELECT VDW BOUNDARY MISC KINETIC TOTAL TEMP POTENTIAL TOTAL3 TEMPAVG PRESSURE GPRESSURE VOLUME PRESSAVG GPRESSAVG
ENERGY: 300000 0.0000 0.0000 0.0000 0.0000 -14050.2261 2383.4714 0.0000 0.0000 524.6035 -11142.1511 89.7018 -11666.7546 -11140.9314 89.7018 -251.5190 -201.7581 29554.4475 -251.5190 -201.7581
ENERGY: 400000 0.0000 0.0000 0.0000 0.0000 -13962.5597 2372.2967 0.0000 0.0000 723.5292 -10866.7338 123.7161 -11590.2630 -10865.5270 120.3932 6.6078 78.3882 29210.5816 4.1583 4.0125
TCL: Running 100000 steps at 150 kelvin.
TCL: Setting parameter langevinTemp to 150
TCL: Running for 100000 steps
ETITLE: TS BOND ANGLE DIHED IMPRP ELECT VDW BOUNDARY MISC KINETIC TOTAL TEMP POTENTIAL TOTAL3 TEMPAVG PRESSURE GPRESSURE VOLUME PRESSAVG GPRESSAVG
ENERGY: 400000 0.0000 0.0000 0.0000 0.0000 -13962.5597 2372.2967 0.0000 0.0000 723.1896 -10867.0734 123.6580 -11590.2630 -10865.4495 123.6580 21.4453 77.9001 29210.5816 21.4453 77.9001
ENERGY: 500000 0.0000 0.0000 0.0000 0.0000 -13662.1144 2277.6171 0.0000 0.0000 889.8320 -10494.6652 152.1522 -11384.4972 -10492.7641 149.8278 -87.9603 2.5124 29305.2137 4.2377 4.2122
TCL: Running 100000 steps at 180 kelvin.
TCL: Setting parameter langevinTemp to 180
TCL: Running for 100000 steps
ETITLE: TS BOND ANGLE DIHED IMPRP ELECT VDW BOUNDARY MISC KINETIC TOTAL TEMP POTENTIAL TOTAL3 TEMPAVG PRESSURE GPRESSURE VOLUME PRESSAVG GPRESSAVG
ENERGY: 500000 0.0000 0.0000 0.0000 0.0000 -13662.1144 2277.6171 0.0000 0.0000 889.3937 -10495.1036 152.0772 -11384.4972 -10493.0031 152.0772 -53.3633 2.0674 29305.2137 -53.3633 2.0674
ENERGY: 600000 0.0000 0.0000 0.0000 0.0000 -13345.5938 2179.0741 0.0000 0.0000 1061.5396 -10104.9802 181.5124 -11166.5197 -10100.9455 180.1106 321.7219 377.2387 28907.7599 3.6812 3.6957
TCL: Running 100000 steps at 210 kelvin.
TCL: Setting parameter langevinTemp to 210
TCL: Running for 100000 steps
ETITLE: TS BOND ANGLE DIHED IMPRP ELECT VDW BOUNDARY MISC KINETIC TOTAL TEMP POTENTIAL TOTAL3 TEMPAVG PRESSURE GPRESSURE VOLUME PRESSAVG GPRESSAVG
ENERGY: 600000 0.0000 0.0000 0.0000 0.0000 -13345.5938 2179.0741 0.0000 0.0000 1061.0192 -10105.5005 181.4234 -11166.5197 -10103.9457 181.4234 340.1926 379.7321 28907.7599 340.1926 379.7321
ENERGY: 700000 0.0000 0.0000 0.0000 0.0000 -12469.3653 1885.7837 0.0000 0.0000 1232.6692 -9350.9123 210.7738 -10583.5815 -9349.5750 209.8722 196.3874 264.6567 28656.6063 3.5451 3.5832
TCL: Running 100000 steps at 240 kelvin.
TCL: Setting parameter langevinTemp to 240
TCL: Running for 100000 steps
ETITLE: TS BOND ANGLE DIHED IMPRP ELECT VDW BOUNDARY MISC KINETIC TOTAL TEMP POTENTIAL TOTAL3 TEMPAVG PRESSURE GPRESSURE VOLUME PRESSAVG GPRESSAVG
ENERGY: 700000 0.0000 0.0000 0.0000 0.0000 -12469.3653 1885.7837 0.0000 0.0000 1232.0324 -9351.5492 210.6649 -10583.5815 -9348.5699 210.6649 198.9925 264.2691 28656.6063 198.9925 264.2691
ENERGY: 800000 0.0000 0.0000 0.0000 0.0000 -11930.5469 1695.2906 0.0000 0.0000 1410.8764 -8824.3800 241.2454 -10235.2563 -8820.8881 240.0353 -467.0114 -424.2930 29409.3409 2.7386 2.4590
TCL: Running 100000 steps at 270 kelvin.
TCL: Setting parameter langevinTemp to 270
TCL: Running for 100000 steps
ETITLE: TS BOND ANGLE DIHED IMPRP ELECT VDW BOUNDARY MISC KINETIC TOTAL TEMP POTENTIAL TOTAL3 TEMPAVG PRESSURE GPRESSURE VOLUME PRESSAVG GPRESSAVG
ENERGY: 800000 0.0000 0.0000 0.0000 0.0000 -11930.5469 1695.2906 0.0000 0.0000 1410.1749 -8825.0814 241.1255 -10235.2563 -8822.2158 241.1255 -501.1114 -422.7317 29409.3409 -501.1114 -422.7317
ENERGY: 900000 0.0000 0.0000 0.0000 0.0000 -11182.3584 1491.5100 0.0000 0.0000 1591.8411 -8099.0074 272.1885 -9690.8485 -8097.3976 270.1922 -425.8057 -272.2341 29806.7506 2.6084 2.7061
TCL: Running 1000000 steps at 300 kelvin.
TCL: Setting parameter langevinTemp to 300
TCL: Running for 1000000 steps
ETITLE: TS BOND ANGLE DIHED IMPRP ELECT VDW BOUNDARY MISC KINETIC TOTAL TEMP POTENTIAL TOTAL3 TEMPAVG PRESSURE GPRESSURE VOLUME PRESSAVG GPRESSAVG
ENERGY: 900000 0.0000 0.0000 0.0000 0.0000 -11182.3584 1491.5100 0.0000 0.0000 1591.0628 -8099.7857 272.0555 -9690.8485 -8097.3301 272.0555 -365.2779 -273.3124 29806.7506 -365.2779 -273.3124
ENERGY: 1100000 0.0000 0.0000 0.0000 0.0000 -10609.2098 1323.8356 0.0000 0.0000 1831.7719 -7453.6023 313.2142 -9285.3742 -7450.5103 299.9962 -760.0683 -684.3629 30981.5593 2.2319 2.0962
ENERGY: 1300000 0.0000 0.0000 0.0000 0.0000 -10754.4551 1383.9368 0.0000 0.0000 1715.6513 -7654.8670 293.3588 -9370.5183 -7651.9789 299.9211 -560.8468 -476.7909 30672.9054 2.4434 2.2088
ENERGY: 1500000 0.0000 0.0000 0.0000 0.0000 -10700.0895 1376.7040 0.0000 0.0000 1679.2315 -7644.1540 287.1314 -9323.3855 -7641.5259 299.9523 -472.5525 -429.2301 30871.6253 3.0252 3.0858
ENERGY: 1700000 0.0000 0.0000 0.0000 0.0000 -10779.9638 1401.0817 0.0000 0.0000 1770.7443 -7608.1378 302.7792 -9378.8821 -7604.4435 299.6782 -316.2430 -209.4720 30477.1559 3.8122 3.9507
ENERGY: 1900000 0.0000 0.0000 0.0000 0.0000 -10783.0250 1437.8777 0.0000 0.0000 1788.0890 -7557.0583 305.7449 -9345.1473 -7553.3049 300.4143 -42.9436 90.2002 30448.5530 2.6451 2.4590
TCL: Exiting due to exit command.
