Info: SIMULATION PARAMETERS:
Info: TIMESTEP               2
Info: NUMBER OF STEPS        0
Info: STEPS PER CYCLE        10
Info: PERIODIC CELL BASIS 1  37.435 0 0
Info: PERIODIC CELL BASIS 2  0 34.26 0
Info: PERIODIC CELL BASIS 3  0 0 34.229
Info: PERIODIC CELL CENTER   0 0 0
Info: WRAPPING WATERS AROUND PERIODIC BOUNDARIES ON OUTPUT.
Info: WRAPPING ALL CLUSTERS AROUND PERIODIC BOUNDARIES ON OUTPUT.
Info: FIRST LDB TIMESTEP     50
Info: LAST LDB TIMESTEP     -1
Info: HOM BACKGROUND SCALING 1
Info: PME BACKGROUND SCALING 1
Info: MIN ATOMS PER PATCH    40
Info: EMPTY PATCH LOAD       40 ATOMS
Info: INITIAL TEMPERATURE    300
Info: CENTER OF MASS MOVING INITIALLY? NO
Info: DIELECTRIC             1
Info: EXCLUDE                SCALED ONE-FOUR
Info: 1-4 ELECTROSTATICS SCALED BY 0.833333
Info: MODIFIED 1-4 VDW PARAMETERS WILL BE USED
Info: DCD FILENAME           mobley_7708038_equil.dcd
Info: DCD FREQUENCY          100000
Info: DCD FIRST STEP         100000
Info: DCD FILE WILL CONTAIN UNIT CELL DATA
Info: XST FILENAME           mobley_7708038_equil.xst
Info: XST FREQUENCY          100000
Info: NO VELOCITY DCD OUTPUT
Info: NO FORCE DCD OUTPUT
Info: OUTPUT FILENAME        mobley_7708038_equil
Info: BINARY OUTPUT FILES WILL BE USED
Info: RESTART FILENAME       mobley_7708038_equil.restart
Info: RESTART FREQUENCY      100000
Info: BINARY RESTART FILES WILL BE USED
Info: CUTOFF                 9
Info: PAIRLIST DISTANCE      11
Info: PAIRLIST SHRINK RATE   0.01
Info: PAIRLIST GROW RATE     0.01
Info: PAIRLIST TRIGGER       0.3
Info: PAIRLISTS PER CYCLE    2
Info: PAIRLISTS ENABLED
Info: MARGIN                 8
Info: HYDROGEN GROUP CUTOFF  2.5
Info: PATCH DIMENSION        21.5
Info: ENERGY OUTPUT STEPS    100000
Info: ENERGY EVALUATION STEPS    100000
Info: OUTPUT ENERGY PRECISION 4
Info: CROSSTERM ENERGY INCLUDED IN DIHEDRAL
Info: TIMING OUTPUT STEPS    1000000
Info: PRESSURE OUTPUT STEPS  100000
Info: FIXED ATOMS ACTIVE
Info: LANGEVIN DYNAMICS ACTIVE
Info: LANGEVIN TEMPERATURE   30
Info: LANGEVIN USING BBK INTEGRATOR
Info: LANGEVIN DAMPING COEFFICIENT IS 1 INVERSE PS
Info: LANGEVIN DYNAMICS APPLIED TO HYDROGENS
Info: LANGEVIN PISTON PRESSURE CONTROL ACTIVE
Info:        TARGET PRESSURE IS 1.01325 BAR
Info:     OSCILLATION PERIOD IS 50 FS
Info:             DECAY TIME IS 25 FS
Info:     PISTON TEMPERATURE IS 300 K
Info:       PRESSURE CONTROL IS GROUP-BASED
Info:    INITIAL STRAIN RATE IS 0 0 0
Info:       CELL FLUCTUATION IS ISOTROPIC
Info: PARTICLE MESH EWALD (PME) ACTIVE
Info: PME TOLERANCE               1e-06
Info: PME EWALD COEFFICIENT       0.348832
Info: PME INTERPOLATION ORDER     4
Info: PME GRID DIMENSIONS         40 36 36
Info: PME MAXIMUM GRID SPACING    1
Info: FULL ELECTROSTATIC EVALUATION FREQUENCY      2
Info: USING VERLET I (r-RESPA) MTS SCHEME.
Info: C1 SPLITTING OF LONG RANGE ELECTROSTATICS
Info: PLACING ATOMS IN PATCHES BY HYDROGEN GROUPS
Info: RIGID BONDS TO HYDROGEN : ALL
Info:         ERROR TOLERANCE : 1e-08
Info:          MAX ITERATIONS : 100
Info: RIGID WATER USING SETTLE ALGORITHM
Info: RANDOM NUMBER SEED     1743900884
Info: USE HYDROGEN BONDS?    NO
Info: Using AMBER format force field!
Info: AMBER PARM FILE        mobley_7708038.prmtop
Info: COORDINATE PDB         mobley_7708038.pdb
Info: Exclusions will be read from PARM file!
Info: SCNB (VDW SCALING)     2
Info: USING ARITHMETIC MEAN TO COMBINE L-J SIGMA PARAMETERS
Info: BINARY COORDINATES     mobley_7708038_min.coor
Info: SUMMARY OF PARAMETERS:
Info: 6 BONDS
Info: 7 ANGLES
Info: 5 DIHEDRAL
Info: 0 IMPROPER
Info: 0 CROSSTERM
Info: 0 VDW
Info: 21 VDW_PAIRS
Info: 0 NBTHOLE_PAIRS
Info: STRUCTURE SUMMARY:
Info: 2990 ATOMS
Info: 2989 BONDS
Info: 18 ANGLES
Info: 20 DIHEDRALS
Info: 0 IMPROPERS
Info: 0 CROSSTERMS
Info: 3025 EXCLUSIONS
Info: 11 FIXED ATOMS
Info: 2986 RIGID BONDS
Info: 7 RIGID BONDS BETWEEN FIXED ATOMS
Info: 5958 DEGREES OF FREEDOM
Info: 997 HYDROGEN GROUPS
Info: 4 ATOMS IN LARGEST HYDROGEN GROUP
Info: 997 MIGRATION GROUPS
Info: 4 ATOMS IN LARGEST MIGRATION GROUP
Info: 4 HYDROGEN GROUPS WITH ALL ATOMS FIXED
Info: TOTAL MASS = 18012.9 amu
Info: TOTAL CHARGE = 0.000100004 e
Info: MASS DENSITY = 0.68137 g/cm^3
Info: ATOM DENSITY = 0.0681101 atoms/A^3
Info: ADDED 0 IMPLICIT EXCLUSIONS
Info: NONBONDED TABLE R-SQUARED SPACING: 0.0625
Info: NONBONDED TABLE SIZE: 705 POINTS
Info: REMOVING COM VELOCITY -0.0329734 0.196842 -0.0828334
TCL: Running for 100000 steps
ETITLE: TS BOND ANGLE DIHED IMPRP ELECT VDW BOUNDARY MISC KINETIC TOTAL TEMP POTENTIAL TOTAL3 TEMPAVG PRESSURE GPRESSURE VOLUME PRESSAVG GPRESSAVG
ENERGY: 0 0.0000 0.0000 0.0000 0.0000 -13822.6880 2411.7201 0.0000 0.0000 1732.7178 -9678.2501 292.6966 -11410.9679 -9677.9064 292.6966 197.9697 239.1328 43899.4832 197.9697 239.1328
ENERGY: 100000 0.0000 0.0000 0.0000 0.0000 -14491.8201 2597.7976 0.0000 0.0000 181.1364 -11712.8862 30.5982 -11894.0226 -11712.6305 30.8277 658.2487 712.3862 29746.5992 4.4621 4.4072
TCL: Running 100000 steps at 60 kelvin.
TCL: Setting parameter langevinTemp to 60
TCL: Running for 100000 steps
ETITLE: TS BOND ANGLE DIHED IMPRP ELECT VDW BOUNDARY MISC KINETIC TOTAL TEMP POTENTIAL TOTAL3 TEMPAVG PRESSURE GPRESSURE VOLUME PRESSAVG GPRESSAVG
ENERGY: 100000 0.0000 0.0000 0.0000 0.0000 -14491.8201 2597.7976 0.0000 0.0000 181.0520 -11712.9706 30.5839 -11894.0226 -11712.6059 30.5839 649.6658 712.3864 29746.5992 649.6658 712.3864
ENERGY: 200000 0.0000 0.0000 0.0000 0.0000 -14430.0830 2595.3511 0.0000 0.0000 365.6168 -11469.1151 61.7612 -11834.7319 -11468.5443 59.8140 1111.1613 1164.4329 29313.3916 3.9208 3.9267
TCL: Running 100000 steps at 90 kelvin.
TCL: Setting parameter langevinTemp to 90
TCL: Running for 100000 steps
ETITLE: TS BOND ANGLE DIHED IMPRP ELECT VDW BOUNDARY MISC KINETIC TOTAL TEMP POTENTIAL TOTAL3 TEMPAVG PRESSURE GPRESSURE VOLUME PRESSAVG GPRESSAVG
ENERGY: 200000 0.0000 0.0000 0.0000 0.0000 -14430.0830 2595.3511 0.0000 0.0000 365.4481 -11469.2838 61.7327 -11834.7319 -11468.5291 61.7327 1119.5513 1164.3575 29313.3916 1119.5513 1164.3575
ENERGY: 300000 0.0000 0.0000 0.0000 0.0000 -14168.5430 2477.5826 0.0000 0.0000 529.6796 -11161.2808 89.4753 -11690.9604 -11160.2045 90.0941 628.5089 667.4470 29322.8791 2.8491 2.8960
TCL: Running 100000 steps at 120 kelvin.
TCL: Setting parameter langevinTemp to 120
TCL: Running for 100000 steps
ETITLE: TS BOND ANGLE DIHED IMPRP ELECT VDW BOUNDARY MISC KINETIC TOTAL TEMP POTENTIAL TOTAL3 TEMPAVG PRESSURE GPRESSURE VOLUME PRESSAVG GPRESSAVG
ENERGY: 300000 0.0000 0.0000 0.0000 0.0000 -14168.5430 2477.5826 0.0000 0.0000 529.4184 -11161.5419 89.4312 -11690.9604 -11160.8172 89.4312 615.5668 667.7417 29322.8791 615.5668 667.7417
ENERGY: 400000 0.0000 0.0000 0.0000 0.0000 -13904.8761 2304.4699 0.0000 0.0000 692.2698 -10908.1364 116.9406 -11600.4062 -10906.7365 119.9390 -571.0549 -502.8742 29506.1068 4.0392 4.1411
TCL: Running 100000 steps at 150 kelvin.
TCL: Setting parameter langevinTemp to 150
TCL: Running for 100000 steps
ETITLE: TS BOND ANGLE DIHED IMPRP ELECT VDW BOUNDARY MISC KINETIC TOTAL TEMP POTENTIAL TOTAL3 TEMPAVG PRESSURE GPRESSURE VOLUME PRESSAVG GPRESSAVG
ENERGY: 400000 0.0000 0.0000 0.0000 0.0000 -13904.8761 2304.4699 0.0000 0.0000 691.9028 -10908.5034 116.8786 -11600.4062 -10906.9426 116.8786 -548.6774 -503.9771 29506.1068 -548.6774 -503.9771
ENERGY: 500000 0.0000 0.0000 0.0000 0.0000 -13848.8686 2355.7850 0.0000 0.0000 898.7355 -10594.3480 151.8175 -11493.0836 -10592.1231 150.2425 23.6312 93.4468 29746.0646 4.0363 4.0515
TCL: Running 100000 steps at 180 kelvin.
TCL: Setting parameter langevinTemp to 180
TCL: Running for 100000 steps
ETITLE: TS BOND ANGLE DIHED IMPRP ELECT VDW BOUNDARY MISC KINETIC TOTAL TEMP POTENTIAL TOTAL3 TEMPAVG PRESSURE GPRESSURE VOLUME PRESSAVG GPRESSAVG
ENERGY: 500000 0.0000 0.0000 0.0000 0.0000 -13848.8686 2355.7850 0.0000 0.0000 898.2845 -10594.7991 151.7413 -11493.0836 -10592.6989 151.7413 41.7676 93.4344 29746.0646 41.7676 93.4344
ENERGY: 600000 0.0000 0.0000 0.0000 0.0000 -13196.4274 2102.0098 0.0000 0.0000 1039.4968 -10054.9208 175.5954 -11094.4176 -10053.1083 180.1652 -454.3053 -333.5018 29492.5303 3.4642 3.4854
TCL: Running 100000 steps at 210 kelvin.
TCL: Setting parameter langevinTemp to 210
TCL: Running for 100000 steps
ETITLE: TS BOND ANGLE DIHED IMPRP ELECT VDW BOUNDARY MISC KINETIC TOTAL TEMP POTENTIAL TOTAL3 TEMPAVG PRESSURE GPRESSURE VOLUME PRESSAVG GPRESSAVG
ENERGY: 600000 0.0000 0.0000 0.0000 0.0000 -13196.4274 2102.0098 0.0000 0.0000 1038.9640 -10055.4536 175.5054 -11094.4176 -10054.1793 175.5054 -400.5110 -333.5693 29492.5303 -400.5110 -333.5693
ENERGY: 700000 0.0000 0.0000 0.0000 0.0000 -12537.4622 1848.0536 0.0000 0.0000 1239.9056 -9449.5030 209.4491 -10689.4086 -9448.8418 210.2261 -638.9867 -558.6887 29255.0738 2.0639 1.9566
TCL: Running 100000 steps at 240 kelvin.
TCL: Setting parameter langevinTemp to 240
TCL: Running for 100000 steps
ETITLE: TS BOND ANGLE DIHED IMPRP ELECT VDW BOUNDARY MISC KINETIC TOTAL TEMP POTENTIAL TOTAL3 TEMPAVG PRESSURE GPRESSURE VOLUME PRESSAVG GPRESSAVG
ENERGY: 700000 0.0000 0.0000 0.0000 0.0000 -12537.4622 1848.0536 0.0000 0.0000 1239.2594 -9450.1492 209.3399 -10689.4086 -9447.7467 209.3399 -633.0416 -559.4084 29255.0738 -633.0416 -559.4084
ENERGY: 800000 0.0000 0.0000 0.0000 0.0000 -11972.5143 1678.8703 0.0000 0.0000 1438.9877 -8854.6563 243.0787 -10293.6440 -8851.6061 239.8126 -693.3361 -657.6441 29497.1567 3.3562 3.2690
TCL: Running 100000 steps at 270 kelvin.
TCL: Setting parameter langevinTemp to 270
TCL: Running for 100000 steps
ETITLE: TS BOND ANGLE DIHED IMPRP ELECT VDW BOUNDARY MISC KINETIC TOTAL TEMP POTENTIAL TOTAL3 TEMPAVG PRESSURE GPRESSURE VOLUME PRESSAVG GPRESSAVG
ENERGY: 800000 0.0000 0.0000 0.0000 0.0000 -11972.5143 1678.8703 0.0000 0.0000 1438.2752 -8855.3688 242.9584 -10293.6440 -8852.5225 242.9584 -740.5799 -658.1545 29497.1567 -740.5799 -658.1545
ENERGY: 900000 0.0000 0.0000 0.0000 0.0000 -11063.3904 1394.4141 0.0000 0.0000 1609.3023 -8059.6740 271.8489 -9668.9763 -8055.7322 269.8874 -1219.0732 -1115.2935 30238.1381 2.4345 2.6255
TCL: Running 1000000 steps at 300 kelvin.
TCL: Setting parameter langevinTemp to 300
TCL: Running for 1000000 steps
ETITLE: TS BOND ANGLE DIHED IMPRP ELECT VDW BOUNDARY MISC KINETIC TOTAL TEMP POTENTIAL TOTAL3 TEMPAVG PRESSURE GPRESSURE VOLUME PRESSAVG GPRESSAVG
ENERGY: 900000 0.0000 0.0000 0.0000 0.0000 -11063.3904 1394.4141 0.0000 0.0000 1608.5148 -8060.4615 271.7158 -9668.9763 -8057.6094 271.7158 -1210.2834 -1115.1308 30238.1381 -1210.2834 -1115.1308
ENERGY: 1100000 0.0000 0.0000 0.0000 0.0000 -10799.2219 1380.4227 0.0000 0.0000 1787.4639 -7631.3353 301.9445 -9418.7992 -7628.7585 300.3874 -768.0230 -715.5491 31362.4170 2.7396 2.5347
ENERGY: 1300000 0.0000 0.0000 0.0000 0.0000 -10961.3654 1468.2533 0.0000 0.0000 1841.3911 -7651.7209 311.0541 -9493.1120 -7647.5250 299.7450 -149.5895 -52.4939 30638.4127 3.6206 3.6375
ENERGY: 1500000 0.0000 0.0000 0.0000 0.0000 -10929.2319 1479.5676 0.0000 0.0000 1761.1238 -7688.5405 297.4951 -9449.6642 -7685.3976 300.5048 52.9327 115.7293 30775.4123 2.2644 2.1999
ENERGY: 1700000 0.0000 0.0000 0.0000 0.0000 -11021.2525 1505.9358 0.0000 0.0000 1839.2061 -7676.1106 310.6850 -9515.3167 -7670.6765 300.6468 30.5537 137.3910 30600.5010 3.9737 4.1292
ENERGY: 1900000 0.0000 0.0000 0.0000 0.0000 -10792.6751 1457.6153 0.0000 0.0000 1796.7798 -7538.2799 303.5182 -9335.0598 -7536.1074 299.7271 73.4391 187.9330 30876.1879 4.5531 4.3855
TCL: Exiting due to exit command.
