Info: SIMULATION PARAMETERS:
Info: TIMESTEP               2
Info: NUMBER OF STEPS        0
Info: STEPS PER CYCLE        10
Info: PERIODIC CELL BASIS 1  36.592 0 0
Info: PERIODIC CELL BASIS 2  0 36.451 0
Info: PERIODIC CELL BASIS 3  0 0 33.876
Info: PERIODIC CELL CENTER   0 0 0
Info: WRAPPING WATERS AROUND PERIODIC BOUNDARIES ON OUTPUT.
Info: WRAPPING ALL CLUSTERS AROUND PERIODIC BOUNDARIES ON OUTPUT.
Info: FIRST LDB TIMESTEP     50
Info: LAST LDB TIMESTEP     -1
Info: HOM BACKGROUND SCALING 1
Info: PME BACKGROUND SCALING 1
Info: MIN ATOMS PER PATCH    40
Info: EMPTY PATCH LOAD       40 ATOMS
Info: INITIAL TEMPERATURE    300
Info: CENTER OF MASS MOVING INITIALLY? NO
Info: DIELECTRIC             1
Info: EXCLUDE                SCALED ONE-FOUR
Info: 1-4 ELECTROSTATICS SCALED BY 0.833333
Info: MODIFIED 1-4 VDW PARAMETERS WILL BE USED
Info: DCD FILENAME           mobley_9729792_equil.dcd
Info: DCD FREQUENCY          100000
Info: DCD FIRST STEP         100000
Info: DCD FILE WILL CONTAIN UNIT CELL DATA
Info: XST FILENAME           mobley_9729792_equil.xst
Info: XST FREQUENCY          100000
Info: NO VELOCITY DCD OUTPUT
Info: NO FORCE DCD OUTPUT
Info: OUTPUT FILENAME        mobley_9729792_equil
Info: BINARY OUTPUT FILES WILL BE USED
Info: RESTART FILENAME       mobley_9729792_equil.restart
Info: RESTART FREQUENCY      100000
Info: BINARY RESTART FILES WILL BE USED
Info: CUTOFF                 9
Info: PAIRLIST DISTANCE      11
Info: PAIRLIST SHRINK RATE   0.01
Info: PAIRLIST GROW RATE     0.01
Info: PAIRLIST TRIGGER       0.3
Info: PAIRLISTS PER CYCLE    2
Info: PAIRLISTS ENABLED
Info: MARGIN                 8
Info: HYDROGEN GROUP CUTOFF  2.5
Info: PATCH DIMENSION        21.5
Info: ENERGY OUTPUT STEPS    100000
Info: ENERGY EVALUATION STEPS    100000
Info: OUTPUT ENERGY PRECISION 4
Info: CROSSTERM ENERGY INCLUDED IN DIHEDRAL
Info: TIMING OUTPUT STEPS    1000000
Info: PRESSURE OUTPUT STEPS  100000
Info: FIXED ATOMS ACTIVE
Info: LANGEVIN DYNAMICS ACTIVE
Info: LANGEVIN TEMPERATURE   30
Info: LANGEVIN USING BBK INTEGRATOR
Info: LANGEVIN DAMPING COEFFICIENT IS 1 INVERSE PS
Info: LANGEVIN DYNAMICS APPLIED TO HYDROGENS
Info: LANGEVIN PISTON PRESSURE CONTROL ACTIVE
Info:        TARGET PRESSURE IS 1.01325 BAR
Info:     OSCILLATION PERIOD IS 50 FS
Info:             DECAY TIME IS 25 FS
Info:     PISTON TEMPERATURE IS 300 K
Info:       PRESSURE CONTROL IS GROUP-BASED
Info:    INITIAL STRAIN RATE IS 0 0 0
Info:       CELL FLUCTUATION IS ISOTROPIC
Info: PARTICLE MESH EWALD (PME) ACTIVE
Info: PME TOLERANCE               1e-06
Info: PME EWALD COEFFICIENT       0.348832
Info: PME INTERPOLATION ORDER     4
Info: PME GRID DIMENSIONS         40 40 36
Info: PME MAXIMUM GRID SPACING    1
Info: FULL ELECTROSTATIC EVALUATION FREQUENCY      2
Info: USING VERLET I (r-RESPA) MTS SCHEME.
Info: C1 SPLITTING OF LONG RANGE ELECTROSTATICS
Info: PLACING ATOMS IN PATCHES BY HYDROGEN GROUPS
Info: RIGID BONDS TO HYDROGEN : ALL
Info:         ERROR TOLERANCE : 1e-08
Info:          MAX ITERATIONS : 100
Info: RIGID WATER USING SETTLE ALGORITHM
Info: RANDOM NUMBER SEED     1743738592
Info: USE HYDROGEN BONDS?    NO
Info: Using AMBER format force field!
Info: AMBER PARM FILE        mobley_9729792.prmtop
Info: COORDINATE PDB         mobley_9729792.pdb
Info: Exclusions will be read from PARM file!
Info: SCNB (VDW SCALING)     2
Info: USING ARITHMETIC MEAN TO COMBINE L-J SIGMA PARAMETERS
Info: BINARY COORDINATES     mobley_9729792_min.coor
Info: SUMMARY OF PARAMETERS:
Info: 12 BONDS
Info: 18 ANGLES
Info:   18 HARMONIC
Info:   0 COSINE-BASED
Info: 4 DIHEDRAL
Info: 0 IMPROPER
Info: 0 CROSSTERM
Info: 0 VDW
Info: 21 VDW_PAIRS
Info: 0 NBTHOLE_PAIRS
Info: STRUCTURE SUMMARY:
Info: 2934 ATOMS
Info: 2934 BONDS
Info: 24 ANGLES
Info: 38 DIHEDRALS
Info: 0 IMPROPERS
Info: 0 CROSSTERMS
Info: 2990 EXCLUSIONS
Info: 15 FIXED ATOMS
Info: 2927 RIGID BONDS
Info: 8 RIGID BONDS BETWEEN FIXED ATOMS
Info: 5838 DEGREES OF FREEDOM
Info: 980 HYDROGEN GROUPS
Info: 3 ATOMS IN LARGEST HYDROGEN GROUP
Info: 980 MIGRATION GROUPS
Info: 3 ATOMS IN LARGEST MIGRATION GROUP
Info: 7 HYDROGEN GROUPS WITH ALL ATOMS FIXED
Info: TOTAL MASS = 17621.7 amu
Info: TOTAL CHARGE = 6.51926e-09 e
Info: MASS DENSITY = 0.647619 g/cm^3
Info: ATOM DENSITY = 0.064934 atoms/A^3
Info: ADDED 0 IMPLICIT EXCLUSIONS
Info: NONBONDED TABLE R-SQUARED SPACING: 0.0625
Info: NONBONDED TABLE SIZE: 705 POINTS
Info: REMOVING COM VELOCITY 0.0312154 0.0781538 0.135382
TCL: Running for 100000 steps
ETITLE: TS BOND ANGLE DIHED IMPRP ELECT VDW BOUNDARY MISC KINETIC TOTAL TEMP POTENTIAL TOTAL3 TEMPAVG PRESSURE GPRESSURE VOLUME PRESSAVG GPRESSAVG
ENERGY: 0 0.0000 0.0000 0.0000 0.0000 -13563.3125 2406.5022 0.0000 0.0000 1800.2141 -9356.5962 310.3491 -11156.8103 -9356.2175 310.3491 508.4282 533.6784 45184.3167 508.4282 533.6784
ENERGY: 100000 0.0000 0.0000 0.0000 0.0000 -14193.4827 2527.2429 0.0000 0.0000 175.2220 -11491.0177 30.2075 -11666.2398 -11490.8813 30.8958 697.6039 753.4010 28577.5062 5.2328 5.2605
TCL: Running 100000 steps at 60 kelvin.
TCL: Setting parameter langevinTemp to 60
TCL: Running for 100000 steps
ETITLE: TS BOND ANGLE DIHED IMPRP ELECT VDW BOUNDARY MISC KINETIC TOTAL TEMP POTENTIAL TOTAL3 TEMPAVG PRESSURE GPRESSURE VOLUME PRESSAVG GPRESSAVG
ENERGY: 100000 0.0000 0.0000 0.0000 0.0000 -14193.4827 2527.2429 0.0000 0.0000 175.1329 -11491.1069 30.1922 -11666.2398 -11490.7472 30.1922 691.2367 753.0938 28577.5062 691.2367 753.0938
ENERGY: 200000 0.0000 0.0000 0.0000 0.0000 -13909.9722 2288.4153 0.0000 0.0000 343.7474 -11277.8095 59.2606 -11621.5569 -11276.5013 59.9669 -1097.9504 -1031.7786 28690.9151 4.2554 4.2419
TCL: Running 100000 steps at 90 kelvin.
TCL: Setting parameter langevinTemp to 90
TCL: Running for 100000 steps
ETITLE: TS BOND ANGLE DIHED IMPRP ELECT VDW BOUNDARY MISC KINETIC TOTAL TEMP POTENTIAL TOTAL3 TEMPAVG PRESSURE GPRESSURE VOLUME PRESSAVG GPRESSAVG
ENERGY: 200000 0.0000 0.0000 0.0000 0.0000 -13909.9722 2288.4153 0.0000 0.0000 343.5714 -11277.9854 59.2302 -11621.5569 -11277.2233 59.2302 -1077.9883 -1031.8507 28690.9151 -1077.9883 -1031.8507
ENERGY: 300000 0.0000 0.0000 0.0000 0.0000 -13854.9187 2332.7434 0.0000 0.0000 528.4440 -10993.7313 91.1014 -11522.1753 -10992.6116 89.9200 -334.5960 -271.3565 28589.2295 3.8207 3.8522
TCL: Running 100000 steps at 120 kelvin.
TCL: Setting parameter langevinTemp to 120
TCL: Running for 100000 steps
ETITLE: TS BOND ANGLE DIHED IMPRP ELECT VDW BOUNDARY MISC KINETIC TOTAL TEMP POTENTIAL TOTAL3 TEMPAVG PRESSURE GPRESSURE VOLUME PRESSAVG GPRESSAVG
ENERGY: 300000 0.0000 0.0000 0.0000 0.0000 -13854.9187 2332.7434 0.0000 0.0000 528.1925 -10993.9828 91.0581 -11522.1753 -10992.8659 91.0581 -328.7614 -271.3963 28589.2295 -328.7614 -271.3963
ENERGY: 400000 0.0000 0.0000 0.0000 0.0000 -13656.5933 2287.3006 0.0000 0.0000 695.2098 -10674.0829 119.8511 -11369.2927 -10672.8228 119.8213 -119.4583 -53.3025 28735.7399 5.0716 5.1815
TCL: Running 100000 steps at 150 kelvin.
TCL: Setting parameter langevinTemp to 150
TCL: Running for 100000 steps
ETITLE: TS BOND ANGLE DIHED IMPRP ELECT VDW BOUNDARY MISC KINETIC TOTAL TEMP POTENTIAL TOTAL3 TEMPAVG PRESSURE GPRESSURE VOLUME PRESSAVG GPRESSAVG
ENERGY: 400000 0.0000 0.0000 0.0000 0.0000 -13656.5933 2287.3006 0.0000 0.0000 694.8802 -10674.4125 119.7943 -11369.2927 -10673.1948 119.7943 -111.4812 -53.5777 28735.7399 -111.4812 -53.5777
ENERGY: 500000 0.0000 0.0000 0.0000 0.0000 -13576.4201 2340.8919 0.0000 0.0000 886.9793 -10348.5489 152.9114 -11235.5282 -10346.6377 150.1311 741.3114 763.9385 28783.7079 5.5227 5.4961
TCL: Running 100000 steps at 180 kelvin.
TCL: Setting parameter langevinTemp to 180
TCL: Running for 100000 steps
ETITLE: TS BOND ANGLE DIHED IMPRP ELECT VDW BOUNDARY MISC KINETIC TOTAL TEMP POTENTIAL TOTAL3 TEMPAVG PRESSURE GPRESSURE VOLUME PRESSAVG GPRESSAVG
ENERGY: 500000 0.0000 0.0000 0.0000 0.0000 -13576.4201 2340.8919 0.0000 0.0000 886.5458 -10348.9825 152.8366 -11235.5282 -10347.2965 152.8366 706.7879 763.1169 28783.7079 706.7879 763.1169
ENERGY: 600000 0.0000 0.0000 0.0000 0.0000 -13032.5426 2115.2239 0.0000 0.0000 1037.4738 -9879.8449 178.8560 -10917.3187 -9877.2748 179.7554 -2.0215 83.9677 28872.3296 3.8916 3.8673
TCL: Running 100000 steps at 210 kelvin.
TCL: Setting parameter langevinTemp to 210
TCL: Running for 100000 steps
ETITLE: TS BOND ANGLE DIHED IMPRP ELECT VDW BOUNDARY MISC KINETIC TOTAL TEMP POTENTIAL TOTAL3 TEMPAVG PRESSURE GPRESSURE VOLUME PRESSAVG GPRESSAVG
ENERGY: 600000 0.0000 0.0000 0.0000 0.0000 -13032.5426 2115.2239 0.0000 0.0000 1036.9431 -9880.3755 178.7645 -10917.3187 -9878.3101 178.7645 16.6549 84.8792 28872.3296 16.6549 84.8792
ENERGY: 700000 0.0000 0.0000 0.0000 0.0000 -12458.0433 1908.1531 0.0000 0.0000 1251.8743 -9298.0158 215.8177 -10549.8902 -9294.6964 209.9994 -201.7029 -108.4888 28916.9286 2.8895 2.8608
TCL: Running 100000 steps at 240 kelvin.
TCL: Setting parameter langevinTemp to 240
TCL: Running for 100000 steps
ETITLE: TS BOND ANGLE DIHED IMPRP ELECT VDW BOUNDARY MISC KINETIC TOTAL TEMP POTENTIAL TOTAL3 TEMPAVG PRESSURE GPRESSURE VOLUME PRESSAVG GPRESSAVG
ENERGY: 700000 0.0000 0.0000 0.0000 0.0000 -12458.0433 1908.1531 0.0000 0.0000 1251.2718 -9298.6184 215.7138 -10549.8902 -9296.3555 215.7138 -173.7017 -108.5671 28916.9286 -173.7017 -108.5671
ENERGY: 800000 0.0000 0.0000 0.0000 0.0000 -11755.2922 1736.5194 0.0000 0.0000 1445.4124 -8573.3603 249.1828 -10018.7728 -8570.7434 240.3157 526.8830 553.3279 28632.3288 4.0470 4.0658
TCL: Running 100000 steps at 270 kelvin.
TCL: Setting parameter langevinTemp to 270
TCL: Running for 100000 steps
ETITLE: TS BOND ANGLE DIHED IMPRP ELECT VDW BOUNDARY MISC KINETIC TOTAL TEMP POTENTIAL TOTAL3 TEMPAVG PRESSURE GPRESSURE VOLUME PRESSAVG GPRESSAVG
ENERGY: 800000 0.0000 0.0000 0.0000 0.0000 -11755.2922 1736.5194 0.0000 0.0000 1444.7141 -8574.0586 249.0624 -10018.7728 -8571.7034 249.0624 474.5439 552.0673 28632.3288 474.5439 552.0673
ENERGY: 900000 0.0000 0.0000 0.0000 0.0000 -11357.6890 1682.9851 0.0000 0.0000 1605.6958 -8069.0082 276.8150 -9674.7039 -8067.7170 270.4838 1003.6553 1084.1394 29094.5313 3.2008 3.2818
TCL: Running 1000000 steps at 300 kelvin.
TCL: Setting parameter langevinTemp to 300
TCL: Running for 1000000 steps
ETITLE: TS BOND ANGLE DIHED IMPRP ELECT VDW BOUNDARY MISC KINETIC TOTAL TEMP POTENTIAL TOTAL3 TEMPAVG PRESSURE GPRESSURE VOLUME PRESSAVG GPRESSAVG
ENERGY: 900000 0.0000 0.0000 0.0000 0.0000 -11357.6890 1682.9851 0.0000 0.0000 1604.9009 -8069.8031 276.6779 -9674.7039 -8067.7629 276.6779 1014.0298 1083.0922 29094.5313 1014.0298 1083.0922
ENERGY: 1100000 0.0000 0.0000 0.0000 0.0000 -10668.0472 1433.4738 0.0000 0.0000 1736.4476 -7498.1258 299.3560 -9234.5734 -7494.3260 300.5137 45.8699 103.4342 30171.2649 2.7255 2.7316
ENERGY: 1300000 0.0000 0.0000 0.0000 0.0000 -10585.8613 1366.0111 0.0000 0.0000 1710.4749 -7509.3753 294.8784 -9219.8502 -7505.0935 299.9211 -709.2489 -591.9531 30520.0851 3.3211 3.5559
ENERGY: 1500000 0.0000 0.0000 0.0000 0.0000 -10441.1254 1326.4930 0.0000 0.0000 1704.1849 -7410.4475 293.7940 -9114.6324 -7408.6413 299.8393 -737.3851 -633.8309 30765.8576 4.2505 4.2472
ENERGY: 1700000 0.0000 0.0000 0.0000 0.0000 -10659.6079 1377.1175 0.0000 0.0000 1707.6348 -7574.8556 294.3888 -9282.4904 -7572.0734 300.2310 -514.3638 -456.9572 29893.4342 3.8259 3.7376
ENERGY: 1900000 0.0000 0.0000 0.0000 0.0000 -10699.0864 1440.5791 0.0000 0.0000 1699.0990 -7559.4082 292.9173 -9258.5073 -7559.5484 300.1129 224.4413 273.2906 29779.5299 3.6583 3.7541
TCL: Exiting due to exit command.
