Info: SIMULATION PARAMETERS:
Info: TIMESTEP               2
Info: NUMBER OF STEPS        0
Info: STEPS PER CYCLE        10
Info: PERIODIC CELL BASIS 1  36.005 0 0
Info: PERIODIC CELL BASIS 2  0 35.847 0
Info: PERIODIC CELL BASIS 3  0 0 34.68
Info: PERIODIC CELL CENTER   0 0 0
Info: WRAPPING WATERS AROUND PERIODIC BOUNDARIES ON OUTPUT.
Info: WRAPPING ALL CLUSTERS AROUND PERIODIC BOUNDARIES ON OUTPUT.
Info: FIRST LDB TIMESTEP     50
Info: LAST LDB TIMESTEP     -1
Info: HOM BACKGROUND SCALING 1
Info: PME BACKGROUND SCALING 1
Info: MIN ATOMS PER PATCH    40
Info: EMPTY PATCH LOAD       40 ATOMS
Info: INITIAL TEMPERATURE    300
Info: CENTER OF MASS MOVING INITIALLY? NO
Info: DIELECTRIC             1
Info: EXCLUDE                SCALED ONE-FOUR
Info: 1-4 ELECTROSTATICS SCALED BY 0.833333
Info: MODIFIED 1-4 VDW PARAMETERS WILL BE USED
Info: DCD FILENAME           mobley_1659169_equil.dcd
Info: DCD FREQUENCY          100000
Info: DCD FIRST STEP         100000
Info: DCD FILE WILL CONTAIN UNIT CELL DATA
Info: XST FILENAME           mobley_1659169_equil.xst
Info: XST FREQUENCY          100000
Info: NO VELOCITY DCD OUTPUT
Info: NO FORCE DCD OUTPUT
Info: OUTPUT FILENAME        mobley_1659169_equil
Info: BINARY OUTPUT FILES WILL BE USED
Info: RESTART FILENAME       mobley_1659169_equil.restart
Info: RESTART FREQUENCY      100000
Info: BINARY RESTART FILES WILL BE USED
Info: CUTOFF                 9
Info: PAIRLIST DISTANCE      11
Info: PAIRLIST SHRINK RATE   0.01
Info: PAIRLIST GROW RATE     0.01
Info: PAIRLIST TRIGGER       0.3
Info: PAIRLISTS PER CYCLE    2
Info: PAIRLISTS ENABLED
Info: MARGIN                 8
Info: HYDROGEN GROUP CUTOFF  2.5
Info: PATCH DIMENSION        21.5
Info: ENERGY OUTPUT STEPS    100000
Info: ENERGY EVALUATION STEPS    100000
Info: OUTPUT ENERGY PRECISION 4
Info: CROSSTERM ENERGY INCLUDED IN DIHEDRAL
Info: TIMING OUTPUT STEPS    1000000
Info: PRESSURE OUTPUT STEPS  100000
Info: FIXED ATOMS ACTIVE
Info: LANGEVIN DYNAMICS ACTIVE
Info: LANGEVIN TEMPERATURE   30
Info: LANGEVIN USING BBK INTEGRATOR
Info: LANGEVIN DAMPING COEFFICIENT IS 1 INVERSE PS
Info: LANGEVIN DYNAMICS APPLIED TO HYDROGENS
Info: LANGEVIN PISTON PRESSURE CONTROL ACTIVE
Info:        TARGET PRESSURE IS 1.01325 BAR
Info:     OSCILLATION PERIOD IS 50 FS
Info:             DECAY TIME IS 25 FS
Info:     PISTON TEMPERATURE IS 300 K
Info:       PRESSURE CONTROL IS GROUP-BASED
Info:    INITIAL STRAIN RATE IS 0 0 0
Info:       CELL FLUCTUATION IS ISOTROPIC
Info: PARTICLE MESH EWALD (PME) ACTIVE
Info: PME TOLERANCE               1e-06
Info: PME EWALD COEFFICIENT       0.348832
Info: PME INTERPOLATION ORDER     4
Info: PME GRID DIMENSIONS         40 36 36
Info: PME MAXIMUM GRID SPACING    1
Info: FULL ELECTROSTATIC EVALUATION FREQUENCY      2
Info: USING VERLET I (r-RESPA) MTS SCHEME.
Info: C1 SPLITTING OF LONG RANGE ELECTROSTATICS
Info: PLACING ATOMS IN PATCHES BY HYDROGEN GROUPS
Info: RIGID BONDS TO HYDROGEN : ALL
Info:         ERROR TOLERANCE : 1e-08
Info:          MAX ITERATIONS : 100
Info: RIGID WATER USING SETTLE ALGORITHM
Info: RANDOM NUMBER SEED     1743740344
Info: USE HYDROGEN BONDS?    NO
Info: Using AMBER format force field!
Info: AMBER PARM FILE        mobley_1659169.prmtop
Info: COORDINATE PDB         mobley_1659169.pdb
Info: Exclusions will be read from PARM file!
Info: SCNB (VDW SCALING)     2
Info: USING ARITHMETIC MEAN TO COMBINE L-J SIGMA PARAMETERS
Info: BINARY COORDINATES     mobley_1659169_min.coor
Info: SUMMARY OF PARAMETERS:
Info: 7 BONDS
Info: 9 ANGLES
Info:   9 HARMONIC
Info:   0 COSINE-BASED
Info: 8 DIHEDRAL
Info: 0 IMPROPER
Info: 0 CROSSTERM
Info: 0 VDW
Info: 28 VDW_PAIRS
Info: 0 NBTHOLE_PAIRS
Info: STRUCTURE SUMMARY:
Info: 2937 ATOMS
Info: 2937 BONDS
Info: 28 ANGLES
Info: 44 DIHEDRALS
Info: 0 IMPROPERS
Info: 0 CROSSTERMS
Info: 2998 EXCLUSIONS
Info: 15 FIXED ATOMS
Info: 2931 RIGID BONDS
Info: 9 RIGID BONDS BETWEEN FIXED ATOMS
Info: 5844 DEGREES OF FREEDOM
Info: 980 HYDROGEN GROUPS
Info: 3 ATOMS IN LARGEST HYDROGEN GROUP
Info: 980 MIGRATION GROUPS
Info: 3 ATOMS IN LARGEST MIGRATION GROUP
Info: 6 HYDROGEN GROUPS WITH ALL ATOMS FIXED
Info: TOTAL MASS = 17634.7 amu
Info: TOTAL CHARGE = -0.000199959 e
Info: MASS DENSITY = 0.654233 g/cm^3
Info: ATOM DENSITY = 0.0656159 atoms/A^3
Info: ADDED 0 IMPLICIT EXCLUSIONS
Info: NONBONDED TABLE R-SQUARED SPACING: 0.0625
Info: NONBONDED TABLE SIZE: 705 POINTS
Info: REMOVING COM VELOCITY 0.0687156 0.00497548 -0.00174637
TCL: Running for 100000 steps
ETITLE: TS BOND ANGLE DIHED IMPRP ELECT VDW BOUNDARY MISC KINETIC TOTAL TEMP POTENTIAL TOTAL3 TEMPAVG PRESSURE GPRESSURE VOLUME PRESSAVG GPRESSAVG
ENERGY: 0 0.0000 0.0000 0.0000 0.0000 -13654.3560 2417.7020 0.0000 0.0000 1741.7869 -9494.8671 299.9682 -11236.6541 -9494.5352 299.9682 603.9171 634.2654 44760.4784 603.9171 634.2654
ENERGY: 100000 0.0000 0.0000 0.0000 0.0000 -14214.6286 2435.9022 0.0000 0.0000 175.7808 -11602.9455 30.2727 -11778.7263 -11602.3577 30.9031 -251.0455 -200.5769 28562.6895 3.7393 3.7180
TCL: Running 100000 steps at 60 kelvin.
TCL: Setting parameter langevinTemp to 60
TCL: Running for 100000 steps
ETITLE: TS BOND ANGLE DIHED IMPRP ELECT VDW BOUNDARY MISC KINETIC TOTAL TEMP POTENTIAL TOTAL3 TEMPAVG PRESSURE GPRESSURE VOLUME PRESSAVG GPRESSAVG
ENERGY: 100000 0.0000 0.0000 0.0000 0.0000 -14214.6286 2435.9022 0.0000 0.0000 175.6918 -11603.0345 30.2574 -11778.7263 -11602.6507 30.2574 -259.4566 -200.3213 28562.6895 -259.4566 -200.3213
ENERGY: 200000 0.0000 0.0000 0.0000 0.0000 -14124.5069 2449.9424 0.0000 0.0000 350.5123 -11324.0522 60.3647 -11674.5645 -11323.3925 59.8939 293.6178 384.6035 28409.8265 5.4047 5.3257
TCL: Running 100000 steps at 90 kelvin.
TCL: Setting parameter langevinTemp to 90
TCL: Running for 100000 steps
ETITLE: TS BOND ANGLE DIHED IMPRP ELECT VDW BOUNDARY MISC KINETIC TOTAL TEMP POTENTIAL TOTAL3 TEMPAVG PRESSURE GPRESSURE VOLUME PRESSAVG GPRESSAVG
ENERGY: 200000 0.0000 0.0000 0.0000 0.0000 -14124.5069 2449.9424 0.0000 0.0000 350.3398 -11324.2247 60.3350 -11674.5645 -11323.4678 60.3350 308.6413 384.4875 28409.8265 308.6413 384.4875
ENERGY: 300000 0.0000 0.0000 0.0000 0.0000 -13921.3206 2348.4333 0.0000 0.0000 524.8474 -11048.0399 90.3885 -11572.8873 -11046.1928 89.9931 -55.0126 6.9897 28454.4244 4.5824 4.6564
TCL: Running 100000 steps at 120 kelvin.
TCL: Setting parameter langevinTemp to 120
TCL: Running for 100000 steps
ETITLE: TS BOND ANGLE DIHED IMPRP ELECT VDW BOUNDARY MISC KINETIC TOTAL TEMP POTENTIAL TOTAL3 TEMPAVG PRESSURE GPRESSURE VOLUME PRESSAVG GPRESSAVG
ENERGY: 300000 0.0000 0.0000 0.0000 0.0000 -13921.3206 2348.4333 0.0000 0.0000 524.5729 -11048.3144 90.3412 -11572.8873 -11047.2493 90.3412 -59.1094 7.4224 28454.4244 -59.1094 7.4224
ENERGY: 400000 0.0000 0.0000 0.0000 0.0000 -13788.8480 2310.8266 0.0000 0.0000 692.0787 -10785.9427 119.1889 -11478.0214 -10785.3987 119.6761 -187.5618 -143.8251 28902.6121 3.7212 3.8077
TCL: Running 100000 steps at 150 kelvin.
TCL: Setting parameter langevinTemp to 150
TCL: Running for 100000 steps
ETITLE: TS BOND ANGLE DIHED IMPRP ELECT VDW BOUNDARY MISC KINETIC TOTAL TEMP POTENTIAL TOTAL3 TEMPAVG PRESSURE GPRESSURE VOLUME PRESSAVG GPRESSAVG
ENERGY: 400000 0.0000 0.0000 0.0000 0.0000 -13788.8480 2310.8266 0.0000 0.0000 691.7166 -10786.3048 119.1265 -11478.0214 -10784.8015 119.1265 -206.3242 -145.7549 28902.6121 -206.3242 -145.7549
ENERGY: 500000 0.0000 0.0000 0.0000 0.0000 -13608.4975 2300.1471 0.0000 0.0000 881.5118 -10426.8386 151.8128 -11308.3504 -10425.0203 149.8554 257.9930 342.7079 28753.3485 3.3820 3.4299
TCL: Running 100000 steps at 180 kelvin.
TCL: Setting parameter langevinTemp to 180
TCL: Running for 100000 steps
ETITLE: TS BOND ANGLE DIHED IMPRP ELECT VDW BOUNDARY MISC KINETIC TOTAL TEMP POTENTIAL TOTAL3 TEMPAVG PRESSURE GPRESSURE VOLUME PRESSAVG GPRESSAVG
ENERGY: 500000 0.0000 0.0000 0.0000 0.0000 -13608.4975 2300.1471 0.0000 0.0000 881.0923 -10427.2581 151.7405 -11308.3504 -10425.6439 151.7405 287.7527 342.5618 28753.3485 287.7527 342.5618
ENERGY: 600000 0.0000 0.0000 0.0000 0.0000 -13103.7928 2123.5814 0.0000 0.0000 1055.8740 -9924.3374 181.8412 -10980.2114 -9922.6691 180.2640 89.3366 106.0645 28954.9255 2.9417 2.9399
TCL: Running 100000 steps at 210 kelvin.
TCL: Setting parameter langevinTemp to 210
TCL: Running for 100000 steps
ETITLE: TS BOND ANGLE DIHED IMPRP ELECT VDW BOUNDARY MISC KINETIC TOTAL TEMP POTENTIAL TOTAL3 TEMPAVG PRESSURE GPRESSURE VOLUME PRESSAVG GPRESSAVG
ENERGY: 600000 0.0000 0.0000 0.0000 0.0000 -13103.7928 2123.5814 0.0000 0.0000 1055.3426 -9924.8688 181.7497 -10980.2114 -9922.7302 181.7497 34.5181 104.0662 28954.9255 34.5181 104.0662
ENERGY: 700000 0.0000 0.0000 0.0000 0.0000 -12446.5599 1905.3307 0.0000 0.0000 1222.6276 -9318.6016 210.5593 -10541.2292 -9315.8354 210.2059 159.2991 254.2792 28653.0071 3.5533 3.5445
TCL: Running 100000 steps at 240 kelvin.
TCL: Setting parameter langevinTemp to 240
TCL: Running for 100000 steps
ETITLE: TS BOND ANGLE DIHED IMPRP ELECT VDW BOUNDARY MISC KINETIC TOTAL TEMP POTENTIAL TOTAL3 TEMPAVG PRESSURE GPRESSURE VOLUME PRESSAVG GPRESSAVG
ENERGY: 700000 0.0000 0.0000 0.0000 0.0000 -12446.5599 1905.3307 0.0000 0.0000 1222.0380 -9319.1913 210.4577 -10541.2292 -9317.3130 210.4577 175.1120 254.4674 28653.0071 175.1120 254.4674
ENERGY: 800000 0.0000 0.0000 0.0000 0.0000 -11896.1671 1730.8031 0.0000 0.0000 1402.4604 -8762.9035 241.5298 -10165.3640 -8761.0762 240.1470 -109.1282 -23.1736 28957.8107 5.2833 5.3522
TCL: Running 100000 steps at 270 kelvin.
TCL: Setting parameter langevinTemp to 270
TCL: Running for 100000 steps
ETITLE: TS BOND ANGLE DIHED IMPRP ELECT VDW BOUNDARY MISC KINETIC TOTAL TEMP POTENTIAL TOTAL3 TEMPAVG PRESSURE GPRESSURE VOLUME PRESSAVG GPRESSAVG
ENERGY: 800000 0.0000 0.0000 0.0000 0.0000 -11896.1671 1730.8031 0.0000 0.0000 1401.7839 -8763.5801 241.4133 -10165.3640 -8761.8605 241.4133 -106.5651 -23.3123 28957.8107 -106.5651 -23.3123
ENERGY: 900000 0.0000 0.0000 0.0000 0.0000 -11266.6909 1590.1587 0.0000 0.0000 1541.2376 -8135.2946 265.4299 -9676.5322 -8133.2885 269.7155 410.0498 464.5172 29010.5646 2.6855 2.7399
TCL: Running 1000000 steps at 300 kelvin.
TCL: Setting parameter langevinTemp to 300
TCL: Running for 1000000 steps
ETITLE: TS BOND ANGLE DIHED IMPRP ELECT VDW BOUNDARY MISC KINETIC TOTAL TEMP POTENTIAL TOTAL3 TEMPAVG PRESSURE GPRESSURE VOLUME PRESSAVG GPRESSAVG
ENERGY: 900000 0.0000 0.0000 0.0000 0.0000 -11266.6909 1590.1587 0.0000 0.0000 1540.4201 -8136.1121 265.2891 -9676.5322 -8134.0535 265.2891 386.8871 463.8531 29010.5646 386.8871 463.8531
ENERGY: 1100000 0.0000 0.0000 0.0000 0.0000 -10767.1446 1429.9239 0.0000 0.0000 1789.9303 -7547.2904 308.2594 -9337.2207 -7543.7165 300.7296 209.3423 283.8136 29673.6342 3.6088 3.3860
ENERGY: 1300000 0.0000 0.0000 0.0000 0.0000 -10818.2615 1464.2879 0.0000 0.0000 1765.9712 -7588.0024 304.1332 -9353.9736 -7582.8910 299.9234 176.5418 273.8589 30130.3683 2.9696 3.1188
ENERGY: 1500000 0.0000 0.0000 0.0000 0.0000 -10679.5151 1409.1987 0.0000 0.0000 1731.6196 -7538.6969 298.2172 -9270.3164 -7536.7987 299.6882 -349.4867 -267.2778 30624.3595 3.1170 3.0945
ENERGY: 1700000 0.0000 0.0000 0.0000 0.0000 -10543.4429 1356.9899 0.0000 0.0000 1739.6586 -7446.7943 299.6017 -9186.4530 -7442.6013 300.1558 -367.1913 -273.9607 30349.9180 3.7882 3.8037
ENERGY: 1900000 0.0000 0.0000 0.0000 0.0000 -10629.5879 1361.3857 0.0000 0.0000 1762.5033 -7505.6989 303.5359 -9268.2022 -7504.5132 300.2254 -582.6777 -495.4933 30208.0530 2.9748 2.9235
TCL: Exiting due to exit command.
