Info: SIMULATION PARAMETERS:
Info: TIMESTEP               2
Info: NUMBER OF STEPS        0
Info: STEPS PER CYCLE        10
Info: PERIODIC CELL BASIS 1  36.592 0 0
Info: PERIODIC CELL BASIS 2  0 35.779 0
Info: PERIODIC CELL BASIS 3  0 0 34.229
Info: PERIODIC CELL CENTER   0 0 0
Info: WRAPPING WATERS AROUND PERIODIC BOUNDARIES ON OUTPUT.
Info: WRAPPING ALL CLUSTERS AROUND PERIODIC BOUNDARIES ON OUTPUT.
Info: FIRST LDB TIMESTEP     50
Info: LAST LDB TIMESTEP     -1
Info: HOM BACKGROUND SCALING 1
Info: PME BACKGROUND SCALING 1
Info: MIN ATOMS PER PATCH    40
Info: EMPTY PATCH LOAD       40 ATOMS
Info: INITIAL TEMPERATURE    300
Info: CENTER OF MASS MOVING INITIALLY? NO
Info: DIELECTRIC             1
Info: EXCLUDE                SCALED ONE-FOUR
Info: 1-4 ELECTROSTATICS SCALED BY 0.833333
Info: MODIFIED 1-4 VDW PARAMETERS WILL BE USED
Info: DCD FILENAME           mobley_5732611_equil.dcd
Info: DCD FREQUENCY          100000
Info: DCD FIRST STEP         100000
Info: DCD FILE WILL CONTAIN UNIT CELL DATA
Info: XST FILENAME           mobley_5732611_equil.xst
Info: XST FREQUENCY          100000
Info: NO VELOCITY DCD OUTPUT
Info: NO FORCE DCD OUTPUT
Info: OUTPUT FILENAME        mobley_5732611_equil
Info: BINARY OUTPUT FILES WILL BE USED
Info: RESTART FILENAME       mobley_5732611_equil.restart
Info: RESTART FREQUENCY      100000
Info: BINARY RESTART FILES WILL BE USED
Info: CUTOFF                 9
Info: PAIRLIST DISTANCE      11
Info: PAIRLIST SHRINK RATE   0.01
Info: PAIRLIST GROW RATE     0.01
Info: PAIRLIST TRIGGER       0.3
Info: PAIRLISTS PER CYCLE    2
Info: PAIRLISTS ENABLED
Info: MARGIN                 8
Info: HYDROGEN GROUP CUTOFF  2.5
Info: PATCH DIMENSION        21.5
Info: ENERGY OUTPUT STEPS    100000
Info: ENERGY EVALUATION STEPS    100000
Info: OUTPUT ENERGY PRECISION 4
Info: CROSSTERM ENERGY INCLUDED IN DIHEDRAL
Info: TIMING OUTPUT STEPS    1000000
Info: PRESSURE OUTPUT STEPS  100000
Info: FIXED ATOMS ACTIVE
Info: LANGEVIN DYNAMICS ACTIVE
Info: LANGEVIN TEMPERATURE   30
Info: LANGEVIN USING BBK INTEGRATOR
Info: LANGEVIN DAMPING COEFFICIENT IS 1 INVERSE PS
Info: LANGEVIN DYNAMICS APPLIED TO HYDROGENS
Info: LANGEVIN PISTON PRESSURE CONTROL ACTIVE
Info:        TARGET PRESSURE IS 1.01325 BAR
Info:     OSCILLATION PERIOD IS 50 FS
Info:             DECAY TIME IS 25 FS
Info:     PISTON TEMPERATURE IS 300 K
Info:       PRESSURE CONTROL IS GROUP-BASED
Info:    INITIAL STRAIN RATE IS 0 0 0
Info:       CELL FLUCTUATION IS ISOTROPIC
Info: PARTICLE MESH EWALD (PME) ACTIVE
Info: PME TOLERANCE               1e-06
Info: PME EWALD COEFFICIENT       0.348832
Info: PME INTERPOLATION ORDER     4
Info: PME GRID DIMENSIONS         40 36 36
Info: PME MAXIMUM GRID SPACING    1
Info: FULL ELECTROSTATIC EVALUATION FREQUENCY      2
Info: USING VERLET I (r-RESPA) MTS SCHEME.
Info: C1 SPLITTING OF LONG RANGE ELECTROSTATICS
Info: PLACING ATOMS IN PATCHES BY HYDROGEN GROUPS
Info: RIGID BONDS TO HYDROGEN : ALL
Info:         ERROR TOLERANCE : 1e-08
Info:          MAX ITERATIONS : 100
Info: RIGID WATER USING SETTLE ALGORITHM
Info: RANDOM NUMBER SEED     1743720856
Info: USE HYDROGEN BONDS?    NO
Info: Using AMBER format force field!
Info: AMBER PARM FILE        mobley_5732611.prmtop
Info: COORDINATE PDB         mobley_5732611.pdb
Info: Exclusions will be read from PARM file!
Info: SCNB (VDW SCALING)     2
Info: USING ARITHMETIC MEAN TO COMBINE L-J SIGMA PARAMETERS
Info: BINARY COORDINATES     mobley_5732611_min.coor
Info: SUMMARY OF PARAMETERS:
Info: 11 BONDS
Info: 14 ANGLES
Info:   14 HARMONIC
Info:   0 COSINE-BASED
Info: 5 DIHEDRAL
Info: 0 IMPROPER
Info: 0 CROSSTERM
Info: 0 VDW
Info: 45 VDW_PAIRS
Info: 0 NBTHOLE_PAIRS
Info: STRUCTURE SUMMARY:
Info: 2988 ATOMS
Info: 2988 BONDS
Info: 19 ANGLES
Info: 26 DIHEDRALS
Info: 0 IMPROPERS
Info: 0 CROSSTERMS
Info: 3024 EXCLUSIONS
Info: 12 FIXED ATOMS
Info: 2982 RIGID BONDS
Info: 6 RIGID BONDS BETWEEN FIXED ATOMS
Info: 5952 DEGREES OF FREEDOM
Info: 998 HYDROGEN GROUPS
Info: 4 ATOMS IN LARGEST HYDROGEN GROUP
Info: 998 MIGRATION GROUPS
Info: 4 ATOMS IN LARGEST MIGRATION GROUP
Info: 6 HYDROGEN GROUPS WITH ALL ATOMS FIXED
Info: TOTAL MASS = 17954 amu
Info: TOTAL CHARGE = -0.000100072 e
Info: MASS DENSITY = 0.665291 g/cm^3
Info: ATOM DENSITY = 0.0666764 atoms/A^3
Info: ADDED 0 IMPLICIT EXCLUSIONS
Info: NONBONDED TABLE R-SQUARED SPACING: 0.0625
Info: NONBONDED TABLE SIZE: 705 POINTS
Info: REMOVING COM VELOCITY -0.186047 0.00415698 -0.136253
TCL: Running for 100000 steps
ETITLE: TS BOND ANGLE DIHED IMPRP ELECT VDW BOUNDARY MISC KINETIC TOTAL TEMP POTENTIAL TOTAL3 TEMPAVG PRESSURE GPRESSURE VOLUME PRESSAVG GPRESSAVG
ENERGY: 0 0.0000 0.0000 0.0000 0.0000 -13899.1088 2414.4178 0.0000 0.0000 1799.1395 -9685.5516 304.2232 -11484.6911 -9685.1536 304.2232 315.8993 347.0545 44813.4683 315.8993 347.0545
ENERGY: 100000 0.0000 0.0000 0.0000 0.0000 -14421.5974 2506.1905 0.0000 0.0000 180.4570 -11734.9500 30.5141 -11915.4070 -11734.5947 30.9281 -102.4097 -66.8073 30323.2561 3.5019 3.4978
TCL: Running 100000 steps at 60 kelvin.
TCL: Setting parameter langevinTemp to 60
TCL: Running for 100000 steps
ETITLE: TS BOND ANGLE DIHED IMPRP ELECT VDW BOUNDARY MISC KINETIC TOTAL TEMP POTENTIAL TOTAL3 TEMPAVG PRESSURE GPRESSURE VOLUME PRESSAVG GPRESSAVG
ENERGY: 100000 0.0000 0.0000 0.0000 0.0000 -14421.5974 2506.1905 0.0000 0.0000 180.3713 -11735.0357 30.4997 -11915.4070 -11734.6168 30.4997 -111.7579 -66.9698 30323.2561 -111.7579 -66.9698
ENERGY: 200000 0.0000 0.0000 0.0000 0.0000 -14269.3482 2402.8686 0.0000 0.0000 363.0428 -11503.4368 61.3883 -11866.4796 -11503.0084 60.0176 -715.8396 -674.2588 30049.8546 3.0033 3.0299
TCL: Running 100000 steps at 90 kelvin.
TCL: Setting parameter langevinTemp to 90
TCL: Running for 100000 steps
ETITLE: TS BOND ANGLE DIHED IMPRP ELECT VDW BOUNDARY MISC KINETIC TOTAL TEMP POTENTIAL TOTAL3 TEMPAVG PRESSURE GPRESSURE VOLUME PRESSAVG GPRESSAVG
ENERGY: 200000 0.0000 0.0000 0.0000 0.0000 -14269.3482 2402.8686 0.0000 0.0000 362.8718 -11503.6078 61.3593 -11866.4796 -11502.7381 61.3593 -720.7045 -674.4943 30049.8546 -720.7045 -674.4943
ENERGY: 300000 0.0000 0.0000 0.0000 0.0000 -14355.8999 2575.7897 0.0000 0.0000 536.3549 -11243.7553 90.6942 -11780.1101 -11242.5071 90.0609 1089.3114 1121.2155 29616.1720 3.7476 3.7175
TCL: Running 100000 steps at 120 kelvin.
TCL: Setting parameter langevinTemp to 120
TCL: Running for 100000 steps
ETITLE: TS BOND ANGLE DIHED IMPRP ELECT VDW BOUNDARY MISC KINETIC TOTAL TEMP POTENTIAL TOTAL3 TEMPAVG PRESSURE GPRESSURE VOLUME PRESSAVG GPRESSAVG
ENERGY: 300000 0.0000 0.0000 0.0000 0.0000 -14355.8999 2575.7897 0.0000 0.0000 536.0942 -11244.0159 90.6502 -11780.1101 -11243.0414 90.6502 1073.9801 1121.1764 29616.1720 1073.9801 1121.1764
ENERGY: 400000 0.0000 0.0000 0.0000 0.0000 -13946.5287 2314.3571 0.0000 0.0000 693.3185 -10938.8531 117.2358 -11632.1716 -10937.3935 119.9308 -573.1406 -533.4470 29830.2589 4.4625 4.4816
TCL: Running 100000 steps at 150 kelvin.
TCL: Setting parameter langevinTemp to 150
TCL: Running for 100000 steps
ETITLE: TS BOND ANGLE DIHED IMPRP ELECT VDW BOUNDARY MISC KINETIC TOTAL TEMP POTENTIAL TOTAL3 TEMPAVG PRESSURE GPRESSURE VOLUME PRESSAVG GPRESSAVG
ENERGY: 400000 0.0000 0.0000 0.0000 0.0000 -13946.5287 2314.3571 0.0000 0.0000 692.9583 -10939.2133 117.1749 -11632.1716 -10938.0924 117.1749 -571.7857 -533.4764 29830.2589 -571.7857 -533.4764
ENERGY: 500000 0.0000 0.0000 0.0000 0.0000 -13802.6741 2326.4639 0.0000 0.0000 879.4787 -10596.7315 148.7143 -11476.2102 -10594.4845 150.2540 321.7284 344.3193 29352.3513 4.1167 4.2492
TCL: Running 100000 steps at 180 kelvin.
TCL: Setting parameter langevinTemp to 180
TCL: Running for 100000 steps
ETITLE: TS BOND ANGLE DIHED IMPRP ELECT VDW BOUNDARY MISC KINETIC TOTAL TEMP POTENTIAL TOTAL3 TEMPAVG PRESSURE GPRESSURE VOLUME PRESSAVG GPRESSAVG
ENERGY: 500000 0.0000 0.0000 0.0000 0.0000 -13802.6741 2326.4639 0.0000 0.0000 879.0340 -10597.1761 148.6391 -11476.2102 -10595.2642 148.6391 301.1405 344.5217 29352.3513 301.1405 344.5217
ENERGY: 600000 0.0000 0.0000 0.0000 0.0000 -13341.5307 2138.6182 0.0000 0.0000 1063.8457 -10139.0668 179.8896 -11202.9125 -10136.8674 179.7765 4.9396 63.9677 29005.0110 4.1068 3.9716
TCL: Running 100000 steps at 210 kelvin.
TCL: Setting parameter langevinTemp to 210
TCL: Running for 100000 steps
ETITLE: TS BOND ANGLE DIHED IMPRP ELECT VDW BOUNDARY MISC KINETIC TOTAL TEMP POTENTIAL TOTAL3 TEMPAVG PRESSURE GPRESSURE VOLUME PRESSAVG GPRESSAVG
ENERGY: 600000 0.0000 0.0000 0.0000 0.0000 -13341.5307 2138.6182 0.0000 0.0000 1063.3147 -10139.5978 179.7998 -11202.9125 -10137.2547 179.7998 -13.7764 63.7763 29005.0110 -13.7764 63.7763
ENERGY: 700000 0.0000 0.0000 0.0000 0.0000 -12763.8598 1948.0636 0.0000 0.0000 1226.9864 -9588.8098 207.4757 -10815.7962 -9587.7104 209.7765 312.9470 396.3146 28645.2311 4.1656 4.1906
TCL: Running 100000 steps at 240 kelvin.
TCL: Setting parameter langevinTemp to 240
TCL: Running for 100000 steps
ETITLE: TS BOND ANGLE DIHED IMPRP ELECT VDW BOUNDARY MISC KINETIC TOTAL TEMP POTENTIAL TOTAL3 TEMPAVG PRESSURE GPRESSURE VOLUME PRESSAVG GPRESSAVG
ENERGY: 700000 0.0000 0.0000 0.0000 0.0000 -12763.8598 1948.0636 0.0000 0.0000 1226.3752 -9589.4210 207.3723 -10815.7962 -9586.9895 207.3723 326.2572 393.9492 28645.2311 326.2572 393.9492
ENERGY: 800000 0.0000 0.0000 0.0000 0.0000 -12037.5916 1721.9535 0.0000 0.0000 1454.9775 -8860.6606 246.0275 -10315.6381 -8857.6917 240.1318 -296.0522 -206.5280 29416.0506 2.6395 2.5067
TCL: Running 100000 steps at 270 kelvin.
TCL: Setting parameter langevinTemp to 270
TCL: Running for 100000 steps
ETITLE: TS BOND ANGLE DIHED IMPRP ELECT VDW BOUNDARY MISC KINETIC TOTAL TEMP POTENTIAL TOTAL3 TEMPAVG PRESSURE GPRESSURE VOLUME PRESSAVG GPRESSAVG
ENERGY: 800000 0.0000 0.0000 0.0000 0.0000 -12037.5916 1721.9535 0.0000 0.0000 1454.2529 -8861.3852 245.9050 -10315.6381 -8859.2983 245.9050 -295.6188 -207.9247 29416.0506 -295.6188 -207.9247
ENERGY: 900000 0.0000 0.0000 0.0000 0.0000 -11462.1128 1562.1518 0.0000 0.0000 1560.5771 -8339.3840 263.8838 -9899.9610 -8334.8223 269.1565 -553.0486 -396.7096 30141.7214 2.4712 2.4182
TCL: Running 1000000 steps at 300 kelvin.
TCL: Setting parameter langevinTemp to 300
TCL: Running for 1000000 steps
ETITLE: TS BOND ANGLE DIHED IMPRP ELECT VDW BOUNDARY MISC KINETIC TOTAL TEMP POTENTIAL TOTAL3 TEMPAVG PRESSURE GPRESSURE VOLUME PRESSAVG GPRESSAVG
ENERGY: 900000 0.0000 0.0000 0.0000 0.0000 -11462.1128 1562.1518 0.0000 0.0000 1559.7649 -8340.1961 263.7464 -9899.9610 -8337.7812 263.7464 -478.2201 -396.0769 30141.7214 -478.2201 -396.0769
ENERGY: 1100000 0.0000 0.0000 0.0000 0.0000 -11066.5844 1509.5096 0.0000 0.0000 1762.4806 -7794.5943 298.0244 -9557.0748 -7790.3518 300.7714 -120.7284 -4.8375 30903.6930 2.8686 2.9859
ENERGY: 1300000 0.0000 0.0000 0.0000 0.0000 -10998.7686 1506.5204 0.0000 0.0000 1770.8935 -7721.3547 299.4470 -9492.2482 -7716.9968 300.1863 216.1986 242.6224 31029.9209 3.8430 3.7705
ENERGY: 1500000 0.0000 0.0000 0.0000 0.0000 -10940.7126 1482.6187 0.0000 0.0000 1746.4605 -7711.6333 295.3155 -9458.0939 -7709.9871 300.3672 343.4992 350.9428 30556.7762 3.3623 3.3143
ENERGY: 1700000 0.0000 0.0000 0.0000 0.0000 -10908.1692 1517.0804 0.0000 0.0000 1787.2472 -7603.8416 302.2123 -9391.0888 -7599.6869 299.8451 470.9799 580.8348 30939.2813 3.7621 3.7980
ENERGY: 1900000 0.0000 0.0000 0.0000 0.0000 -10926.2749 1489.6338 0.0000 0.0000 1793.1303 -7643.5108 303.2071 -9436.6410 -7641.6105 299.8257 437.9105 557.1404 30565.4559 2.5080 2.5897
TCL: Exiting due to exit command.
