Info: SIMULATION PARAMETERS:
Info: TIMESTEP               2
Info: NUMBER OF STEPS        0
Info: STEPS PER CYCLE        10
Info: PERIODIC CELL BASIS 1  37.435 0 0
Info: PERIODIC CELL BASIS 2  0 34.457 0
Info: PERIODIC CELL BASIS 3  0 0 33.876
Info: PERIODIC CELL CENTER   0 0 0
Info: WRAPPING WATERS AROUND PERIODIC BOUNDARIES ON OUTPUT.
Info: WRAPPING ALL CLUSTERS AROUND PERIODIC BOUNDARIES ON OUTPUT.
Info: FIRST LDB TIMESTEP     50
Info: LAST LDB TIMESTEP     -1
Info: HOM BACKGROUND SCALING 1
Info: PME BACKGROUND SCALING 1
Info: MIN ATOMS PER PATCH    40
Info: EMPTY PATCH LOAD       40 ATOMS
Info: INITIAL TEMPERATURE    300
Info: CENTER OF MASS MOVING INITIALLY? NO
Info: DIELECTRIC             1
Info: EXCLUDE                SCALED ONE-FOUR
Info: 1-4 ELECTROSTATICS SCALED BY 0.833333
Info: MODIFIED 1-4 VDW PARAMETERS WILL BE USED
Info: DCD FILENAME           mobley_5220185_equil.dcd
Info: DCD FREQUENCY          100000
Info: DCD FIRST STEP         100000
Info: DCD FILE WILL CONTAIN UNIT CELL DATA
Info: XST FILENAME           mobley_5220185_equil.xst
Info: XST FREQUENCY          100000
Info: NO VELOCITY DCD OUTPUT
Info: NO FORCE DCD OUTPUT
Info: OUTPUT FILENAME        mobley_5220185_equil
Info: BINARY OUTPUT FILES WILL BE USED
Info: RESTART FILENAME       mobley_5220185_equil.restart
Info: RESTART FREQUENCY      100000
Info: BINARY RESTART FILES WILL BE USED
Info: CUTOFF                 9
Info: PAIRLIST DISTANCE      11
Info: PAIRLIST SHRINK RATE   0.01
Info: PAIRLIST GROW RATE     0.01
Info: PAIRLIST TRIGGER       0.3
Info: PAIRLISTS PER CYCLE    2
Info: PAIRLISTS ENABLED
Info: MARGIN                 8
Info: HYDROGEN GROUP CUTOFF  2.5
Info: PATCH DIMENSION        21.5
Info: ENERGY OUTPUT STEPS    100000
Info: ENERGY EVALUATION STEPS    100000
Info: OUTPUT ENERGY PRECISION 4
Info: CROSSTERM ENERGY INCLUDED IN DIHEDRAL
Info: TIMING OUTPUT STEPS    1000000
Info: PRESSURE OUTPUT STEPS  100000
Info: FIXED ATOMS ACTIVE
Info: LANGEVIN DYNAMICS ACTIVE
Info: LANGEVIN TEMPERATURE   30
Info: LANGEVIN USING BBK INTEGRATOR
Info: LANGEVIN DAMPING COEFFICIENT IS 1 INVERSE PS
Info: LANGEVIN DYNAMICS APPLIED TO HYDROGENS
Info: LANGEVIN PISTON PRESSURE CONTROL ACTIVE
Info:        TARGET PRESSURE IS 1.01325 BAR
Info:     OSCILLATION PERIOD IS 50 FS
Info:             DECAY TIME IS 25 FS
Info:     PISTON TEMPERATURE IS 300 K
Info:       PRESSURE CONTROL IS GROUP-BASED
Info:    INITIAL STRAIN RATE IS 0 0 0
Info:       CELL FLUCTUATION IS ISOTROPIC
Info: PARTICLE MESH EWALD (PME) ACTIVE
Info: PME TOLERANCE               1e-06
Info: PME EWALD COEFFICIENT       0.348832
Info: PME INTERPOLATION ORDER     4
Info: PME GRID DIMENSIONS         40 36 36
Info: PME MAXIMUM GRID SPACING    1
Info: FULL ELECTROSTATIC EVALUATION FREQUENCY      2
Info: USING VERLET I (r-RESPA) MTS SCHEME.
Info: C1 SPLITTING OF LONG RANGE ELECTROSTATICS
Info: PLACING ATOMS IN PATCHES BY HYDROGEN GROUPS
Info: RIGID BONDS TO HYDROGEN : ALL
Info:         ERROR TOLERANCE : 1e-08
Info:          MAX ITERATIONS : 100
Info: RIGID WATER USING SETTLE ALGORITHM
Info: RANDOM NUMBER SEED     1744092198
Info: USE HYDROGEN BONDS?    NO
Info: Using AMBER format force field!
Info: AMBER PARM FILE        mobley_5220185.prmtop
Info: COORDINATE PDB         mobley_5220185.pdb
Info: Exclusions will be read from PARM file!
Info: SCNB (VDW SCALING)     2
Info: USING ARITHMETIC MEAN TO COMBINE L-J SIGMA PARAMETERS
Info: BINARY COORDINATES     mobley_5220185_min.coor
Info: SUMMARY OF PARAMETERS:
Info: 8 BONDS
Info: 10 ANGLES
Info: 6 DIHEDRAL
Info: 0 IMPROPER
Info: 0 CROSSTERM
Info: 0 VDW
Info: 28 VDW_PAIRS
Info: 0 NBTHOLE_PAIRS
Info: STRUCTURE SUMMARY:
Info: 2998 ATOMS
Info: 2998 BONDS
Info: 26 ANGLES
Info: 35 DIHEDRALS
Info: 0 IMPROPERS
Info: 0 CROSSTERMS
Info: 3052 EXCLUSIONS
Info: 16 FIXED ATOMS
Info: 2990 RIGID BONDS
Info: 8 RIGID BONDS BETWEEN FIXED ATOMS
Info: 5964 DEGREES OF FREEDOM
Info: 1002 HYDROGEN GROUPS
Info: 4 ATOMS IN LARGEST HYDROGEN GROUP
Info: 1002 MIGRATION GROUPS
Info: 4 ATOMS IN LARGEST MIGRATION GROUP
Info: 8 HYDROGEN GROUPS WITH ALL ATOMS FIXED
Info: TOTAL MASS = 18016 amu
Info: TOTAL CHARGE = 0.000100043 e
Info: MASS DENSITY = 0.684654 g/cm^3
Info: ATOM DENSITY = 0.0686095 atoms/A^3
Info: ADDED 0 IMPLICIT EXCLUSIONS
Info: NONBONDED TABLE R-SQUARED SPACING: 0.0625
Info: NONBONDED TABLE SIZE: 705 POINTS
Info: REMOVING COM VELOCITY -0.0173065 0.115684 -0.0732442
TCL: Running for 100000 steps
ETITLE: TS BOND ANGLE DIHED IMPRP ELECT VDW BOUNDARY MISC KINETIC TOTAL TEMP POTENTIAL TOTAL3 TEMPAVG PRESSURE GPRESSURE VOLUME PRESSAVG GPRESSAVG
ENERGY: 0 0.0000 0.0000 0.0000 0.0000 -13904.5537 2384.7772 0.0000 0.0000 1780.7308 -9739.0457 300.5045 -11519.7765 -9738.6961 300.5045 94.1517 128.2830 43696.5777 94.1517 128.2830
ENERGY: 100000 0.0000 0.0000 0.0000 0.0000 -14608.8855 2638.6151 0.0000 0.0000 177.5123 -11792.7581 29.9558 -11970.2703 -11792.4881 30.8859 1114.4482 1139.5058 29323.2103 3.4482 3.4854
TCL: Running 100000 steps at 60 kelvin.
TCL: Setting parameter langevinTemp to 60
TCL: Running for 100000 steps
ETITLE: TS BOND ANGLE DIHED IMPRP ELECT VDW BOUNDARY MISC KINETIC TOTAL TEMP POTENTIAL TOTAL3 TEMPAVG PRESSURE GPRESSURE VOLUME PRESSAVG GPRESSAVG
ENERGY: 100000 0.0000 0.0000 0.0000 0.0000 -14608.8855 2638.6151 0.0000 0.0000 177.4237 -11792.8467 29.9409 -11970.2703 -11792.5832 29.9409 1100.1978 1139.4728 29323.2103 1100.1978 1139.4728
ENERGY: 200000 0.0000 0.0000 0.0000 0.0000 -14263.9442 2353.6357 0.0000 0.0000 356.7714 -11553.5372 60.2064 -11910.3086 -11552.8035 59.9949 -1003.7056 -941.6445 29822.5965 3.8234 3.7900
TCL: Running 100000 steps at 90 kelvin.
TCL: Setting parameter langevinTemp to 90
TCL: Running for 100000 steps
ETITLE: TS BOND ANGLE DIHED IMPRP ELECT VDW BOUNDARY MISC KINETIC TOTAL TEMP POTENTIAL TOTAL3 TEMPAVG PRESSURE GPRESSURE VOLUME PRESSAVG GPRESSAVG
ENERGY: 200000 0.0000 0.0000 0.0000 0.0000 -14263.9442 2353.6357 0.0000 0.0000 356.5900 -11553.7186 60.1758 -11910.3086 -11552.9356 60.1758 -1001.7176 -942.4237 29822.5965 -1001.7176 -942.4237
ENERGY: 300000 0.0000 0.0000 0.0000 0.0000 -14226.6538 2439.8307 0.0000 0.0000 525.8506 -11260.9725 88.7391 -11786.8231 -11259.5320 90.0097 178.3484 225.5477 29403.0899 2.9686 3.0533
TCL: Running 100000 steps at 120 kelvin.
TCL: Setting parameter langevinTemp to 120
TCL: Running for 100000 steps
ETITLE: TS BOND ANGLE DIHED IMPRP ELECT VDW BOUNDARY MISC KINETIC TOTAL TEMP POTENTIAL TOTAL3 TEMPAVG PRESSURE GPRESSURE VOLUME PRESSAVG GPRESSAVG
ENERGY: 300000 0.0000 0.0000 0.0000 0.0000 -14226.6538 2439.8307 0.0000 0.0000 525.5877 -11261.2354 88.6948 -11786.8231 -11260.1672 88.6948 168.2541 225.5114 29403.0899 168.2541 225.5114
ENERGY: 400000 0.0000 0.0000 0.0000 0.0000 -14048.6099 2341.7290 0.0000 0.0000 692.3378 -11014.5431 116.8344 -11706.8809 -11013.0124 119.9654 -241.6452 -210.5184 29385.4262 3.8563 3.9169
TCL: Running 100000 steps at 150 kelvin.
TCL: Setting parameter langevinTemp to 150
TCL: Running for 100000 steps
ETITLE: TS BOND ANGLE DIHED IMPRP ELECT VDW BOUNDARY MISC KINETIC TOTAL TEMP POTENTIAL TOTAL3 TEMPAVG PRESSURE GPRESSURE VOLUME PRESSAVG GPRESSAVG
ENERGY: 400000 0.0000 0.0000 0.0000 0.0000 -14048.6099 2341.7290 0.0000 0.0000 691.9762 -11014.9047 116.7734 -11706.8809 -11013.4672 116.7734 -254.1542 -210.3155 29385.4262 -254.1542 -210.3155
ENERGY: 500000 0.0000 0.0000 0.0000 0.0000 -13655.9075 2133.8641 0.0000 0.0000 933.7313 -10588.3120 157.5704 -11522.0434 -10586.3267 150.1863 -1023.3162 -982.8307 29208.5111 3.8795 3.8832
TCL: Running 100000 steps at 180 kelvin.
TCL: Setting parameter langevinTemp to 180
TCL: Running for 100000 steps
ETITLE: TS BOND ANGLE DIHED IMPRP ELECT VDW BOUNDARY MISC KINETIC TOTAL TEMP POTENTIAL TOTAL3 TEMPAVG PRESSURE GPRESSURE VOLUME PRESSAVG GPRESSAVG
ENERGY: 500000 0.0000 0.0000 0.0000 0.0000 -13655.9075 2133.8641 0.0000 0.0000 933.2846 -10588.7587 157.4950 -11522.0434 -10586.5050 157.4950 -1025.4377 -983.0159 29208.5111 -1025.4377 -983.0159
ENERGY: 600000 0.0000 0.0000 0.0000 0.0000 -13290.3205 2097.7138 0.0000 0.0000 1056.4434 -10136.1634 178.2785 -11192.6068 -10133.4108 179.1873 -462.4957 -404.1067 29593.6626 3.8569 3.7690
TCL: Running 100000 steps at 210 kelvin.
TCL: Setting parameter langevinTemp to 210
TCL: Running for 100000 steps
ETITLE: TS BOND ANGLE DIHED IMPRP ELECT VDW BOUNDARY MISC KINETIC TOTAL TEMP POTENTIAL TOTAL3 TEMPAVG PRESSURE GPRESSURE VOLUME PRESSAVG GPRESSAVG
ENERGY: 600000 0.0000 0.0000 0.0000 0.0000 -13290.3205 2097.7138 0.0000 0.0000 1055.9319 -10136.6749 178.1922 -11192.6068 -10134.6056 178.1922 -469.3021 -403.5191 29593.6626 -469.3021 -403.5191
ENERGY: 700000 0.0000 0.0000 0.0000 0.0000 -12614.6201 1878.8782 0.0000 0.0000 1263.9883 -9471.7535 213.3024 -10735.7419 -9468.3919 209.5501 -379.5286 -286.7929 29422.6177 4.0622 3.9485
TCL: Running 100000 steps at 240 kelvin.
TCL: Setting parameter langevinTemp to 240
TCL: Running for 100000 steps
ETITLE: TS BOND ANGLE DIHED IMPRP ELECT VDW BOUNDARY MISC KINETIC TOTAL TEMP POTENTIAL TOTAL3 TEMPAVG PRESSURE GPRESSURE VOLUME PRESSAVG GPRESSAVG
ENERGY: 700000 0.0000 0.0000 0.0000 0.0000 -12614.6201 1878.8782 0.0000 0.0000 1263.3767 -9472.3652 213.1992 -10735.7419 -9469.9273 213.1992 -360.2980 -286.7065 29422.6177 -360.2980 -286.7065
ENERGY: 800000 0.0000 0.0000 0.0000 0.0000 -12071.0731 1761.7084 0.0000 0.0000 1373.3889 -8935.9758 231.7642 -10309.3648 -8933.5181 239.4696 133.6317 267.7197 29309.4928 5.1674 5.0961
TCL: Running 100000 steps at 270 kelvin.
TCL: Setting parameter langevinTemp to 270
TCL: Running for 100000 steps
ETITLE: TS BOND ANGLE DIHED IMPRP ELECT VDW BOUNDARY MISC KINETIC TOTAL TEMP POTENTIAL TOTAL3 TEMPAVG PRESSURE GPRESSURE VOLUME PRESSAVG GPRESSAVG
ENERGY: 800000 0.0000 0.0000 0.0000 0.0000 -12071.0731 1761.7084 0.0000 0.0000 1372.6756 -8936.6892 231.6438 -10309.3648 -8934.3565 231.6438 173.1357 267.3834 29309.4928 173.1357 267.3834
ENERGY: 900000 0.0000 0.0000 0.0000 0.0000 -11430.5429 1568.7678 0.0000 0.0000 1562.7369 -8299.0381 263.7173 -9861.7751 -8295.8427 269.8573 -190.9028 -124.6838 30161.8494 3.6299 3.5543
TCL: Running 1000000 steps at 300 kelvin.
TCL: Setting parameter langevinTemp to 300
TCL: Running for 1000000 steps
ETITLE: TS BOND ANGLE DIHED IMPRP ELECT VDW BOUNDARY MISC KINETIC TOTAL TEMP POTENTIAL TOTAL3 TEMPAVG PRESSURE GPRESSURE VOLUME PRESSAVG GPRESSAVG
ENERGY: 900000 0.0000 0.0000 0.0000 0.0000 -11430.5429 1568.7678 0.0000 0.0000 1561.9314 -8299.8437 263.5814 -9861.7751 -8297.0557 263.5814 -221.7918 -124.8313 30161.8494 -221.7918 -124.8313
ENERGY: 1100000 0.0000 0.0000 0.0000 0.0000 -10933.2957 1496.5846 0.0000 0.0000 1844.5776 -7592.1335 311.2789 -9436.7111 -7588.8027 300.3795 691.0475 735.0860 30771.5757 4.8050 4.6880
ENERGY: 1300000 0.0000 0.0000 0.0000 0.0000 -10966.5818 1483.1228 0.0000 0.0000 1832.4243 -7651.0346 309.2280 -9483.4590 -7649.7940 299.8775 273.1730 309.8616 31071.9998 2.3478 2.4785
ENERGY: 1500000 0.0000 0.0000 0.0000 0.0000 -10927.9452 1417.7823 0.0000 0.0000 1772.6214 -7737.5415 299.1360 -9510.1629 -7733.9772 299.4704 -422.9946 -358.1695 31049.2023 4.2198 4.1985
ENERGY: 1700000 0.0000 0.0000 0.0000 0.0000 -10854.6448 1393.6260 0.0000 0.0000 1811.4028 -7649.6160 305.6805 -9461.0188 -7645.3512 300.4647 -372.5237 -231.3035 30802.7779 4.8748 4.8858
ENERGY: 1900000 0.0000 0.0000 0.0000 0.0000 -11045.2918 1516.0043 0.0000 0.0000 1801.0479 -7728.2396 303.9331 -9529.2874 -7727.1786 300.5141 395.9927 437.0576 30769.2600 2.4344 2.6144
TCL: Exiting due to exit command.
