Info: SIMULATION PARAMETERS:
Info: TIMESTEP               2
Info: NUMBER OF STEPS        0
Info: STEPS PER CYCLE        10
Info: PERIODIC CELL BASIS 1  37.435 0 0
Info: PERIODIC CELL BASIS 2  0 34.26 0
Info: PERIODIC CELL BASIS 3  0 0 33.876
Info: PERIODIC CELL CENTER   0 0 0
Info: WRAPPING WATERS AROUND PERIODIC BOUNDARIES ON OUTPUT.
Info: WRAPPING ALL CLUSTERS AROUND PERIODIC BOUNDARIES ON OUTPUT.
Info: FIRST LDB TIMESTEP     50
Info: LAST LDB TIMESTEP     -1
Info: HOM BACKGROUND SCALING 1
Info: PME BACKGROUND SCALING 1
Info: MIN ATOMS PER PATCH    40
Info: EMPTY PATCH LOAD       40 ATOMS
Info: INITIAL TEMPERATURE    300
Info: CENTER OF MASS MOVING INITIALLY? NO
Info: DIELECTRIC             1
Info: EXCLUDE                SCALED ONE-FOUR
Info: 1-4 ELECTROSTATICS SCALED BY 0.833333
Info: MODIFIED 1-4 VDW PARAMETERS WILL BE USED
Info: DCD FILENAME           mobley_1199854_equil.dcd
Info: DCD FREQUENCY          100000
Info: DCD FIRST STEP         100000
Info: DCD FILE WILL CONTAIN UNIT CELL DATA
Info: XST FILENAME           mobley_1199854_equil.xst
Info: XST FREQUENCY          100000
Info: NO VELOCITY DCD OUTPUT
Info: NO FORCE DCD OUTPUT
Info: OUTPUT FILENAME        mobley_1199854_equil
Info: BINARY OUTPUT FILES WILL BE USED
Info: RESTART FILENAME       mobley_1199854_equil.restart
Info: RESTART FREQUENCY      100000
Info: BINARY RESTART FILES WILL BE USED
Info: CUTOFF                 9
Info: PAIRLIST DISTANCE      11
Info: PAIRLIST SHRINK RATE   0.01
Info: PAIRLIST GROW RATE     0.01
Info: PAIRLIST TRIGGER       0.3
Info: PAIRLISTS PER CYCLE    2
Info: PAIRLISTS ENABLED
Info: MARGIN                 8
Info: HYDROGEN GROUP CUTOFF  2.5
Info: PATCH DIMENSION        21.5
Info: ENERGY OUTPUT STEPS    100000
Info: ENERGY EVALUATION STEPS    100000
Info: OUTPUT ENERGY PRECISION 4
Info: CROSSTERM ENERGY INCLUDED IN DIHEDRAL
Info: TIMING OUTPUT STEPS    1000000
Info: PRESSURE OUTPUT STEPS  100000
Info: FIXED ATOMS ACTIVE
Info: LANGEVIN DYNAMICS ACTIVE
Info: LANGEVIN TEMPERATURE   30
Info: LANGEVIN USING BBK INTEGRATOR
Info: LANGEVIN DAMPING COEFFICIENT IS 1 INVERSE PS
Info: LANGEVIN DYNAMICS APPLIED TO HYDROGENS
Info: LANGEVIN PISTON PRESSURE CONTROL ACTIVE
Info:        TARGET PRESSURE IS 1.01325 BAR
Info:     OSCILLATION PERIOD IS 50 FS
Info:             DECAY TIME IS 25 FS
Info:     PISTON TEMPERATURE IS 300 K
Info:       PRESSURE CONTROL IS GROUP-BASED
Info:    INITIAL STRAIN RATE IS 0 0 0
Info:       CELL FLUCTUATION IS ISOTROPIC
Info: PARTICLE MESH EWALD (PME) ACTIVE
Info: PME TOLERANCE               1e-06
Info: PME EWALD COEFFICIENT       0.348832
Info: PME INTERPOLATION ORDER     4
Info: PME GRID DIMENSIONS         40 36 36
Info: PME MAXIMUM GRID SPACING    1
Info: FULL ELECTROSTATIC EVALUATION FREQUENCY      2
Info: USING VERLET I (r-RESPA) MTS SCHEME.
Info: C1 SPLITTING OF LONG RANGE ELECTROSTATICS
Info: PLACING ATOMS IN PATCHES BY HYDROGEN GROUPS
Info: RIGID BONDS TO HYDROGEN : ALL
Info:         ERROR TOLERANCE : 1e-08
Info:          MAX ITERATIONS : 100
Info: RIGID WATER USING SETTLE ALGORITHM
Info: RANDOM NUMBER SEED     1743900825
Info: USE HYDROGEN BONDS?    NO
Info: Using AMBER format force field!
Info: AMBER PARM FILE        mobley_1199854.prmtop
Info: COORDINATE PDB         mobley_1199854.pdb
Info: Exclusions will be read from PARM file!
Info: SCNB (VDW SCALING)     2
Info: USING ARITHMETIC MEAN TO COMBINE L-J SIGMA PARAMETERS
Info: BINARY COORDINATES     mobley_1199854_min.coor
Info: SUMMARY OF PARAMETERS:
Info: 6 BONDS
Info: 7 ANGLES
Info: 3 DIHEDRAL
Info: 0 IMPROPER
Info: 0 CROSSTERM
Info: 0 VDW
Info: 21 VDW_PAIRS
Info: 0 NBTHOLE_PAIRS
Info: STRUCTURE SUMMARY:
Info: 2918 ATOMS
Info: 2917 BONDS
Info: 18 ANGLES
Info: 18 DIHEDRALS
Info: 0 IMPROPERS
Info: 0 CROSSTERMS
Info: 2953 EXCLUSIONS
Info: 11 FIXED ATOMS
Info: 2914 RIGID BONDS
Info: 7 RIGID BONDS BETWEEN FIXED ATOMS
Info: 5814 DEGREES OF FREEDOM
Info: 973 HYDROGEN GROUPS
Info: 4 ATOMS IN LARGEST HYDROGEN GROUP
Info: 973 MIGRATION GROUPS
Info: 4 ATOMS IN LARGEST MIGRATION GROUP
Info: 4 HYDROGEN GROUPS WITH ALL ATOMS FIXED
Info: TOTAL MASS = 17627.5 amu
Info: TOTAL CHARGE = 2.23517e-08 e
Info: MASS DENSITY = 0.67374 g/cm^3
Info: ATOM DENSITY = 0.0671627 atoms/A^3
Info: ADDED 0 IMPLICIT EXCLUSIONS
Info: NONBONDED TABLE R-SQUARED SPACING: 0.0625
Info: NONBONDED TABLE SIZE: 705 POINTS
Info: REMOVING COM VELOCITY -0.174764 0.0886006 -0.110568
TCL: Running for 100000 steps
ETITLE: TS BOND ANGLE DIHED IMPRP ELECT VDW BOUNDARY MISC KINETIC TOTAL TEMP POTENTIAL TOTAL3 TEMPAVG PRESSURE GPRESSURE VOLUME PRESSAVG GPRESSAVG
ENERGY: 0 0.0000 0.0000 0.0000 0.0000 -13484.6498 2380.7859 0.0000 0.0000 1735.8925 -9367.9714 300.4956 -11103.8639 -9367.6606 300.4956 466.7341 493.7437 43446.7525 466.7341 493.7437
ENERGY: 100000 0.0000 0.0000 0.0000 0.0000 -14079.0878 2452.5493 0.0000 0.0000 177.3361 -11449.2024 30.6982 -11626.5385 -11448.6992 30.9394 -46.5756 18.3398 28845.1316 3.4062 3.4634
TCL: Running 100000 steps at 60 kelvin.
TCL: Setting parameter langevinTemp to 60
TCL: Running for 100000 steps
ETITLE: TS BOND ANGLE DIHED IMPRP ELECT VDW BOUNDARY MISC KINETIC TOTAL TEMP POTENTIAL TOTAL3 TEMPAVG PRESSURE GPRESSURE VOLUME PRESSAVG GPRESSAVG
ENERGY: 100000 0.0000 0.0000 0.0000 0.0000 -14079.0878 2452.5493 0.0000 0.0000 177.2521 -11449.2864 30.6836 -11626.5385 -11448.9581 30.6836 -37.2574 18.4744 28845.1316 -37.2574 18.4744
ENERGY: 200000 0.0000 0.0000 0.0000 0.0000 -13924.2860 2396.3255 0.0000 0.0000 348.7170 -11179.2436 60.3654 -11527.9605 -11178.4351 59.7902 52.8846 111.3994 28597.2454 3.5591 3.7234
TCL: Running 100000 steps at 90 kelvin.
TCL: Setting parameter langevinTemp to 90
TCL: Running for 100000 steps
ETITLE: TS BOND ANGLE DIHED IMPRP ELECT VDW BOUNDARY MISC KINETIC TOTAL TEMP POTENTIAL TOTAL3 TEMPAVG PRESSURE GPRESSURE VOLUME PRESSAVG GPRESSAVG
ENERGY: 200000 0.0000 0.0000 0.0000 0.0000 -13924.2860 2396.3255 0.0000 0.0000 348.5437 -11179.4169 60.3354 -11527.9605 -11178.8862 60.3354 61.1990 111.8240 28597.2454 61.1990 111.8240
ENERGY: 300000 0.0000 0.0000 0.0000 0.0000 -13860.3260 2385.2957 0.0000 0.0000 510.3776 -10964.6526 88.3501 -11475.0302 -10963.6663 89.8633 247.6081 281.4764 28290.0864 3.8093 3.8162
TCL: Running 100000 steps at 120 kelvin.
TCL: Setting parameter langevinTemp to 120
TCL: Running for 100000 steps
ETITLE: TS BOND ANGLE DIHED IMPRP ELECT VDW BOUNDARY MISC KINETIC TOTAL TEMP POTENTIAL TOTAL3 TEMPAVG PRESSURE GPRESSURE VOLUME PRESSAVG GPRESSAVG
ENERGY: 300000 0.0000 0.0000 0.0000 0.0000 -13860.3260 2385.2957 0.0000 0.0000 510.1181 -10964.9122 88.3052 -11475.0302 -10963.9564 88.3052 225.7695 281.9075 28290.0864 225.7695 281.9075
ENERGY: 400000 0.0000 0.0000 0.0000 0.0000 -13611.5573 2250.8059 0.0000 0.0000 700.1908 -10660.5606 121.2081 -11360.7514 -10659.6497 120.1114 -485.1950 -454.5828 28457.3071 5.3087 5.2423
TCL: Running 100000 steps at 150 kelvin.
TCL: Setting parameter langevinTemp to 150
TCL: Running for 100000 steps
ETITLE: TS BOND ANGLE DIHED IMPRP ELECT VDW BOUNDARY MISC KINETIC TOTAL TEMP POTENTIAL TOTAL3 TEMPAVG PRESSURE GPRESSURE VOLUME PRESSAVG GPRESSAVG
ENERGY: 400000 0.0000 0.0000 0.0000 0.0000 -13611.5573 2250.8059 0.0000 0.0000 699.8493 -10660.9022 121.1490 -11360.7514 -10659.5977 121.1490 -499.4013 -454.9915 28457.3071 -499.4013 -454.9915
ENERGY: 500000 0.0000 0.0000 0.0000 0.0000 -13441.9037 2251.2161 0.0000 0.0000 860.3755 -10330.3120 148.9373 -11190.6875 -10327.8343 149.9015 106.2209 85.5624 28557.7948 4.5681 4.6160
TCL: Running 100000 steps at 180 kelvin.
TCL: Setting parameter langevinTemp to 180
TCL: Running for 100000 steps
ETITLE: TS BOND ANGLE DIHED IMPRP ELECT VDW BOUNDARY MISC KINETIC TOTAL TEMP POTENTIAL TOTAL3 TEMPAVG PRESSURE GPRESSURE VOLUME PRESSAVG GPRESSAVG
ENERGY: 500000 0.0000 0.0000 0.0000 0.0000 -13441.9037 2251.2161 0.0000 0.0000 859.9449 -10330.7426 148.8627 -11190.6875 -10328.9155 148.8627 41.3748 85.3768 28557.7948 41.3748 85.3768
ENERGY: 600000 0.0000 0.0000 0.0000 0.0000 -13046.4345 2118.3398 0.0000 0.0000 1049.2246 -9878.8701 181.6284 -10928.0947 -9876.6785 179.7393 119.0099 188.4182 28362.4777 3.7456 3.7687
TCL: Running 100000 steps at 210 kelvin.
TCL: Setting parameter langevinTemp to 210
TCL: Running for 100000 steps
ETITLE: TS BOND ANGLE DIHED IMPRP ELECT VDW BOUNDARY MISC KINETIC TOTAL TEMP POTENTIAL TOTAL3 TEMPAVG PRESSURE GPRESSURE VOLUME PRESSAVG GPRESSAVG
ENERGY: 600000 0.0000 0.0000 0.0000 0.0000 -13046.4345 2118.3398 0.0000 0.0000 1048.6840 -9879.4107 181.5349 -10928.0947 -9877.3479 181.5349 120.3530 189.1702 28362.4777 120.3530 189.1702
ENERGY: 700000 0.0000 0.0000 0.0000 0.0000 -12217.6352 1837.7647 0.0000 0.0000 1184.7341 -9195.1365 205.0861 -10379.8706 -9192.9713 209.7405 -284.9895 -271.6660 28637.0038 3.9935 4.1458
TCL: Running 100000 steps at 240 kelvin.
TCL: Setting parameter langevinTemp to 240
TCL: Running for 100000 steps
ETITLE: TS BOND ANGLE DIHED IMPRP ELECT VDW BOUNDARY MISC KINETIC TOTAL TEMP POTENTIAL TOTAL3 TEMPAVG PRESSURE GPRESSURE VOLUME PRESSAVG GPRESSAVG
ENERGY: 700000 0.0000 0.0000 0.0000 0.0000 -12217.6352 1837.7647 0.0000 0.0000 1184.1285 -9195.7421 204.9813 -10379.8706 -9193.9401 204.9813 -361.0430 -272.4632 28637.0038 -361.0430 -272.4632
ENERGY: 800000 0.0000 0.0000 0.0000 0.0000 -11546.9368 1630.4084 0.0000 0.0000 1403.8629 -8512.6655 243.0189 -9916.5284 -8511.0165 240.0216 -140.6821 -95.1857 28680.4905 2.6367 2.6726
TCL: Running 100000 steps at 270 kelvin.
TCL: Setting parameter langevinTemp to 270
TCL: Running for 100000 steps
ETITLE: TS BOND ANGLE DIHED IMPRP ELECT VDW BOUNDARY MISC KINETIC TOTAL TEMP POTENTIAL TOTAL3 TEMPAVG PRESSURE GPRESSURE VOLUME PRESSAVG GPRESSAVG
ENERGY: 800000 0.0000 0.0000 0.0000 0.0000 -11546.9368 1630.4084 0.0000 0.0000 1403.1735 -8513.3549 242.8996 -9916.5284 -8511.3565 242.8996 -183.7431 -97.2271 28680.4905 -183.7431 -97.2271
ENERGY: 900000 0.0000 0.0000 0.0000 0.0000 -11223.7602 1631.8923 0.0000 0.0000 1521.7729 -8070.0951 263.4300 -9591.8680 -8066.0064 269.1308 550.1939 626.1044 29320.3842 3.0728 3.1704
TCL: Running 1000000 steps at 300 kelvin.
TCL: Setting parameter langevinTemp to 300
TCL: Running for 1000000 steps
ETITLE: TS BOND ANGLE DIHED IMPRP ELECT VDW BOUNDARY MISC KINETIC TOTAL TEMP POTENTIAL TOTAL3 TEMPAVG PRESSURE GPRESSURE VOLUME PRESSAVG GPRESSAVG
ENERGY: 900000 0.0000 0.0000 0.0000 0.0000 -11223.7602 1631.8923 0.0000 0.0000 1520.9695 -8070.8984 263.2909 -9591.8680 -8068.9986 263.2909 547.2376 628.3957 29320.3842 547.2376 628.3957
ENERGY: 1100000 0.0000 0.0000 0.0000 0.0000 -10667.4223 1462.0505 0.0000 0.0000 1705.7888 -7499.5830 295.2845 -9205.3718 -7496.5537 300.6067 -12.7554 47.0386 30382.4234 2.1367 2.1112
ENERGY: 1300000 0.0000 0.0000 0.0000 0.0000 -10632.0976 1455.9342 0.0000 0.0000 1761.0974 -7415.0660 304.8588 -9176.1634 -7412.5512 299.9899 238.2126 286.6270 30115.5665 1.8909 1.9482
ENERGY: 1500000 0.0000 0.0000 0.0000 0.0000 -10662.5096 1472.2759 0.0000 0.0000 1703.2637 -7486.9700 294.8474 -9190.2336 -7483.6267 300.3278 646.2376 685.9341 29605.3573 3.2353 3.4386
ENERGY: 1700000 0.0000 0.0000 0.0000 0.0000 -10360.2687 1309.2021 0.0000 0.0000 1741.9537 -7309.1130 301.5449 -9051.0667 -7304.3982 299.7704 -655.3920 -507.4893 30203.8270 3.3201 3.3020
ENERGY: 1900000 0.0000 0.0000 0.0000 0.0000 -10513.9900 1392.2256 0.0000 0.0000 1703.8940 -7417.8704 294.9565 -9121.7644 -7413.5553 299.9615 -224.0807 -84.3392 30275.2594 2.9162 3.0110
TCL: Exiting due to exit command.
