Info: SIMULATION PARAMETERS:
Info: TIMESTEP               2
Info: NUMBER OF STEPS        0
Info: STEPS PER CYCLE        10
Info: PERIODIC CELL BASIS 1  37.133 0 0
Info: PERIODIC CELL BASIS 2  0 36.762 0
Info: PERIODIC CELL BASIS 3  0 0 31.855
Info: PERIODIC CELL CENTER   0 0 0
Info: WRAPPING WATERS AROUND PERIODIC BOUNDARIES ON OUTPUT.
Info: WRAPPING ALL CLUSTERS AROUND PERIODIC BOUNDARIES ON OUTPUT.
Info: FIRST LDB TIMESTEP     50
Info: LAST LDB TIMESTEP     -1
Info: HOM BACKGROUND SCALING 1
Info: PME BACKGROUND SCALING 1
Info: MIN ATOMS PER PATCH    40
Info: EMPTY PATCH LOAD       40 ATOMS
Info: INITIAL TEMPERATURE    300
Info: CENTER OF MASS MOVING INITIALLY? NO
Info: DIELECTRIC             1
Info: EXCLUDE                SCALED ONE-FOUR
Info: 1-4 ELECTROSTATICS SCALED BY 0.833333
Info: MODIFIED 1-4 VDW PARAMETERS WILL BE USED
Info: DCD FILENAME           mobley_1987439_equil.dcd
Info: DCD FREQUENCY          100000
Info: DCD FIRST STEP         100000
Info: DCD FILE WILL CONTAIN UNIT CELL DATA
Info: XST FILENAME           mobley_1987439_equil.xst
Info: XST FREQUENCY          100000
Info: NO VELOCITY DCD OUTPUT
Info: NO FORCE DCD OUTPUT
Info: OUTPUT FILENAME        mobley_1987439_equil
Info: BINARY OUTPUT FILES WILL BE USED
Info: RESTART FILENAME       mobley_1987439_equil.restart
Info: RESTART FREQUENCY      100000
Info: BINARY RESTART FILES WILL BE USED
Info: CUTOFF                 9
Info: PAIRLIST DISTANCE      11
Info: PAIRLIST SHRINK RATE   0.01
Info: PAIRLIST GROW RATE     0.01
Info: PAIRLIST TRIGGER       0.3
Info: PAIRLISTS PER CYCLE    2
Info: PAIRLISTS ENABLED
Info: MARGIN                 8
Info: HYDROGEN GROUP CUTOFF  2.5
Info: PATCH DIMENSION        21.5
Info: ENERGY OUTPUT STEPS    100000
Info: ENERGY EVALUATION STEPS    100000
Info: OUTPUT ENERGY PRECISION 4
Info: CROSSTERM ENERGY INCLUDED IN DIHEDRAL
Info: TIMING OUTPUT STEPS    1000000
Info: PRESSURE OUTPUT STEPS  100000
Info: FIXED ATOMS ACTIVE
Info: LANGEVIN DYNAMICS ACTIVE
Info: LANGEVIN TEMPERATURE   30
Info: LANGEVIN USING BBK INTEGRATOR
Info: LANGEVIN DAMPING COEFFICIENT IS 1 INVERSE PS
Info: LANGEVIN DYNAMICS APPLIED TO HYDROGENS
Info: LANGEVIN PISTON PRESSURE CONTROL ACTIVE
Info:        TARGET PRESSURE IS 1.01325 BAR
Info:     OSCILLATION PERIOD IS 50 FS
Info:             DECAY TIME IS 25 FS
Info:     PISTON TEMPERATURE IS 300 K
Info:       PRESSURE CONTROL IS GROUP-BASED
Info:    INITIAL STRAIN RATE IS 0 0 0
Info:       CELL FLUCTUATION IS ISOTROPIC
Info: PARTICLE MESH EWALD (PME) ACTIVE
Info: PME TOLERANCE               1e-06
Info: PME EWALD COEFFICIENT       0.348832
Info: PME INTERPOLATION ORDER     4
Info: PME GRID DIMENSIONS         40 40 32
Info: PME MAXIMUM GRID SPACING    1
Info: FULL ELECTROSTATIC EVALUATION FREQUENCY      2
Info: USING VERLET I (r-RESPA) MTS SCHEME.
Info: C1 SPLITTING OF LONG RANGE ELECTROSTATICS
Info: PLACING ATOMS IN PATCHES BY HYDROGEN GROUPS
Info: RIGID BONDS TO HYDROGEN : ALL
Info:         ERROR TOLERANCE : 1e-08
Info:          MAX ITERATIONS : 100
Info: RIGID WATER USING SETTLE ALGORITHM
Info: RANDOM NUMBER SEED     1743764161
Info: USE HYDROGEN BONDS?    NO
Info: Using AMBER format force field!
Info: AMBER PARM FILE        mobley_1987439.prmtop
Info: COORDINATE PDB         mobley_1987439.pdb
Info: Exclusions will be read from PARM file!
Info: SCNB (VDW SCALING)     2
Info: USING ARITHMETIC MEAN TO COMBINE L-J SIGMA PARAMETERS
Info: BINARY COORDINATES     mobley_1987439_min.coor
Info: SUMMARY OF PARAMETERS:
Info: 6 BONDS
Info: 5 ANGLES
Info:   5 HARMONIC
Info:   0 COSINE-BASED
Info: 3 DIHEDRAL
Info: 0 IMPROPER
Info: 0 CROSSTERM
Info: 0 VDW
Info: 21 VDW_PAIRS
Info: 0 NBTHOLE_PAIRS
Info: STRUCTURE SUMMARY:
Info: 2925 ATOMS
Info: 2925 BONDS
Info: 36 ANGLES
Info: 48 DIHEDRALS
Info: 0 IMPROPERS
Info: 0 CROSSTERMS
Info: 3000 EXCLUSIONS
Info: 21 FIXED ATOMS
Info: 2916 RIGID BONDS
Info: 12 RIGID BONDS BETWEEN FIXED ATOMS
Info: 5808 DEGREES OF FREEDOM
Info: 977 HYDROGEN GROUPS
Info: 4 ATOMS IN LARGEST HYDROGEN GROUP
Info: 977 MIGRATION GROUPS
Info: 4 ATOMS IN LARGEST MIGRATION GROUP
Info: 9 HYDROGEN GROUPS WITH ALL ATOMS FIXED
Info: TOTAL MASS = 17559.7 amu
Info: TOTAL CHARGE = 0.000400022 e
Info: MASS DENSITY = 0.670562 g/cm^3
Info: ATOM DENSITY = 0.067265 atoms/A^3
Info: ADDED 0 IMPLICIT EXCLUSIONS
Info: NONBONDED TABLE R-SQUARED SPACING: 0.0625
Info: NONBONDED TABLE SIZE: 705 POINTS
Info: REMOVING COM VELOCITY -0.0885645 -0.00463598 0.0187817
TCL: Running for 100000 steps
ETITLE: TS BOND ANGLE DIHED IMPRP ELECT VDW BOUNDARY MISC KINETIC TOTAL TEMP POTENTIAL TOTAL3 TEMPAVG PRESSURE GPRESSURE VOLUME PRESSAVG GPRESSAVG
ENERGY: 0 0.0000 0.0000 0.0000 0.0000 -13495.8481 2335.0468 0.0000 0.0000 1718.1845 -9442.6168 297.7375 -11160.8013 -9442.2560 297.7375 -17.5851 8.6755 43484.7300 -17.5851 8.6755
ENERGY: 100000 0.0000 0.0000 0.0000 0.0000 -13892.6041 2369.3739 0.0000 0.0000 172.6828 -11350.5474 29.9235 -11523.2302 -11350.0644 30.8653 -716.0770 -680.4056 30378.9709 4.5331 4.4830
TCL: Running 100000 steps at 60 kelvin.
TCL: Setting parameter langevinTemp to 60
TCL: Running for 100000 steps
ETITLE: TS BOND ANGLE DIHED IMPRP ELECT VDW BOUNDARY MISC KINETIC TOTAL TEMP POTENTIAL TOTAL3 TEMPAVG PRESSURE GPRESSURE VOLUME PRESSAVG GPRESSAVG
ENERGY: 100000 0.0000 0.0000 0.0000 0.0000 -13892.6041 2369.3739 0.0000 0.0000 172.5975 -11350.6327 29.9088 -11523.2302 -11350.2624 29.9088 -727.3951 -680.4628 30378.9709 -727.3951 -680.4628
ENERGY: 200000 0.0000 0.0000 0.0000 0.0000 -13865.2675 2380.1929 0.0000 0.0000 347.1052 -11137.9695 60.1485 -11485.0746 -11137.5690 59.9886 -291.8555 -245.4390 29778.3457 4.2540 4.2549
TCL: Running 100000 steps at 90 kelvin.
TCL: Setting parameter langevinTemp to 90
TCL: Running for 100000 steps
ETITLE: TS BOND ANGLE DIHED IMPRP ELECT VDW BOUNDARY MISC KINETIC TOTAL TEMP POTENTIAL TOTAL3 TEMPAVG PRESSURE GPRESSURE VOLUME PRESSAVG GPRESSAVG
ENERGY: 200000 0.0000 0.0000 0.0000 0.0000 -13865.2675 2380.1929 0.0000 0.0000 346.9392 -11138.1354 60.1198 -11485.0746 -11137.1516 60.1198 -282.0373 -245.8636 29778.3457 -282.0373 -245.8636
ENERGY: 300000 0.0000 0.0000 0.0000 0.0000 -13904.1128 2524.8613 0.0000 0.0000 514.7632 -10864.4883 89.2013 -11379.2515 -10864.5856 89.9158 1506.7556 1544.7607 28920.4288 5.8962 5.8487
TCL: Running 100000 steps at 120 kelvin.
TCL: Setting parameter langevinTemp to 120
TCL: Running for 100000 steps
ETITLE: TS BOND ANGLE DIHED IMPRP ELECT VDW BOUNDARY MISC KINETIC TOTAL TEMP POTENTIAL TOTAL3 TEMPAVG PRESSURE GPRESSURE VOLUME PRESSAVG GPRESSAVG
ENERGY: 300000 0.0000 0.0000 0.0000 0.0000 -13904.1128 2524.8613 0.0000 0.0000 514.5048 -10864.7467 89.1565 -11379.2515 -10863.9132 89.1565 1504.0623 1544.7105 28920.4288 1504.0623 1544.7105
ENERGY: 400000 0.0000 0.0000 0.0000 0.0000 -13611.6918 2321.2597 0.0000 0.0000 699.6899 -10590.7421 121.2466 -11290.4320 -10589.9749 120.1217 117.3952 154.3181 28942.6902 4.8874 4.7344
TCL: Running 100000 steps at 150 kelvin.
TCL: Setting parameter langevinTemp to 150
TCL: Running for 100000 steps
ETITLE: TS BOND ANGLE DIHED IMPRP ELECT VDW BOUNDARY MISC KINETIC TOTAL TEMP POTENTIAL TOTAL3 TEMPAVG PRESSURE GPRESSURE VOLUME PRESSAVG GPRESSAVG
ENERGY: 400000 0.0000 0.0000 0.0000 0.0000 -13611.6918 2321.2597 0.0000 0.0000 699.3243 -10591.1077 121.1832 -11290.4320 -10589.8479 121.1832 107.5191 153.2237 28942.6902 107.5191 153.2237
ENERGY: 500000 0.0000 0.0000 0.0000 0.0000 -13335.9242 2184.5315 0.0000 0.0000 839.8331 -10311.5595 145.5314 -11151.3927 -10309.5467 150.1291 -639.5758 -584.2021 29295.1539 3.6456 3.7022
TCL: Running 100000 steps at 180 kelvin.
TCL: Setting parameter langevinTemp to 180
TCL: Running for 100000 steps
ETITLE: TS BOND ANGLE DIHED IMPRP ELECT VDW BOUNDARY MISC KINETIC TOTAL TEMP POTENTIAL TOTAL3 TEMPAVG PRESSURE GPRESSURE VOLUME PRESSAVG GPRESSAVG
ENERGY: 500000 0.0000 0.0000 0.0000 0.0000 -13335.9242 2184.5315 0.0000 0.0000 839.3950 -10311.9977 145.4555 -11151.3927 -10309.9362 145.4555 -640.0963 -584.5435 29295.1539 -640.0963 -584.5435
ENERGY: 600000 0.0000 0.0000 0.0000 0.0000 -12848.8545 1979.7806 0.0000 0.0000 1033.0943 -9835.9797 179.0209 -10869.0740 -9833.7434 179.7558 -1040.7557 -915.2973 28783.0914 3.0015 3.0065
TCL: Running 100000 steps at 210 kelvin.
TCL: Setting parameter langevinTemp to 210
TCL: Running for 100000 steps
ETITLE: TS BOND ANGLE DIHED IMPRP ELECT VDW BOUNDARY MISC KINETIC TOTAL TEMP POTENTIAL TOTAL3 TEMPAVG PRESSURE GPRESSURE VOLUME PRESSAVG GPRESSAVG
ENERGY: 600000 0.0000 0.0000 0.0000 0.0000 -12848.8545 1979.7806 0.0000 0.0000 1032.5750 -9836.4989 178.9309 -10869.0740 -9834.7008 178.9309 -990.7207 -915.1976 28783.0914 -990.7207 -915.1976
ENERGY: 700000 0.0000 0.0000 0.0000 0.0000 -12234.9519 1833.3881 0.0000 0.0000 1234.9749 -9166.5889 214.0040 -10401.5638 -9161.5521 209.8152 -314.8331 -218.5454 28558.5051 2.9620 2.9067
TCL: Running 100000 steps at 240 kelvin.
TCL: Setting parameter langevinTemp to 240
TCL: Running for 100000 steps
ETITLE: TS BOND ANGLE DIHED IMPRP ELECT VDW BOUNDARY MISC KINETIC TOTAL TEMP POTENTIAL TOTAL3 TEMPAVG PRESSURE GPRESSURE VOLUME PRESSAVG GPRESSAVG
ENERGY: 700000 0.0000 0.0000 0.0000 0.0000 -12234.9519 1833.3881 0.0000 0.0000 1234.3674 -9167.1964 213.8987 -10401.5638 -9164.8407 213.8987 -295.6300 -217.4582 28558.5051 -295.6300 -217.4582
ENERGY: 800000 0.0000 0.0000 0.0000 0.0000 -11834.7834 1755.1450 0.0000 0.0000 1397.8187 -8681.8198 242.2226 -10079.6385 -8677.0856 239.8045 330.3818 427.7275 28411.2646 3.5101 3.5137
TCL: Running 100000 steps at 270 kelvin.
TCL: Setting parameter langevinTemp to 270
TCL: Running for 100000 steps
ETITLE: TS BOND ANGLE DIHED IMPRP ELECT VDW BOUNDARY MISC KINETIC TOTAL TEMP POTENTIAL TOTAL3 TEMPAVG PRESSURE GPRESSURE VOLUME PRESSAVG GPRESSAVG
ENERGY: 800000 0.0000 0.0000 0.0000 0.0000 -11834.7834 1755.1450 0.0000 0.0000 1397.1435 -8682.4949 242.1056 -10079.6385 -8680.0705 242.1056 361.1382 430.0425 28411.2646 361.1382 430.0425
ENERGY: 900000 0.0000 0.0000 0.0000 0.0000 -11022.8337 1441.9619 0.0000 0.0000 1619.9574 -7960.9144 280.7161 -9580.8718 -7957.8872 269.6044 -926.8035 -752.0811 29493.6789 3.6244 3.6390
TCL: Running 1000000 steps at 300 kelvin.
TCL: Setting parameter langevinTemp to 300
TCL: Running for 1000000 steps
ETITLE: TS BOND ANGLE DIHED IMPRP ELECT VDW BOUNDARY MISC KINETIC TOTAL TEMP POTENTIAL TOTAL3 TEMPAVG PRESSURE GPRESSURE VOLUME PRESSAVG GPRESSAVG
ENERGY: 900000 0.0000 0.0000 0.0000 0.0000 -11022.8337 1441.9619 0.0000 0.0000 1619.1655 -7961.7063 280.5789 -9580.8718 -7959.1587 280.5789 -844.8969 -752.5373 29493.6789 -844.8969 -752.5373
ENERGY: 1100000 0.0000 0.0000 0.0000 0.0000 -10575.2702 1388.8423 0.0000 0.0000 1737.1715 -7449.2563 301.0277 -9186.4279 -7445.8689 300.1397 -144.7063 -59.3509 29904.3589 3.2082 3.1975
ENERGY: 1300000 0.0000 0.0000 0.0000 0.0000 -10590.0916 1428.6645 0.0000 0.0000 1702.8569 -7458.5703 295.0815 -9161.4272 -7455.4793 299.8807 -42.6726 52.1764 30082.5258 4.2467 4.2220
ENERGY: 1500000 0.0000 0.0000 0.0000 0.0000 -10525.6499 1417.1598 0.0000 0.0000 1712.3572 -7396.1329 296.7277 -9108.4901 -7394.7518 300.1775 314.4532 393.5536 29817.8653 3.0230 3.0345
ENERGY: 1700000 0.0000 0.0000 0.0000 0.0000 -10706.8895 1437.3279 0.0000 0.0000 1724.6291 -7544.9324 298.8543 -9269.5616 -7543.8472 300.6245 29.5440 124.0164 29667.8787 2.9960 2.9852
ENERGY: 1900000 0.0000 0.0000 0.0000 0.0000 -10756.9084 1473.4671 0.0000 0.0000 1708.0893 -7575.3519 295.9882 -9283.4412 -7570.6890 299.7709 143.2458 216.2074 29816.9256 2.2498 2.1237
TCL: Exiting due to exit command.
