Info: SIMULATION PARAMETERS:
Info: TIMESTEP               2
Info: NUMBER OF STEPS        0
Info: STEPS PER CYCLE        10
Info: PERIODIC CELL BASIS 1  36.592 0 0
Info: PERIODIC CELL BASIS 2  0 36.611 0
Info: PERIODIC CELL BASIS 3  0 0 33.27
Info: PERIODIC CELL CENTER   0 0 0
Info: WRAPPING WATERS AROUND PERIODIC BOUNDARIES ON OUTPUT.
Info: WRAPPING ALL CLUSTERS AROUND PERIODIC BOUNDARIES ON OUTPUT.
Info: FIRST LDB TIMESTEP     50
Info: LAST LDB TIMESTEP     -1
Info: HOM BACKGROUND SCALING 1
Info: PME BACKGROUND SCALING 1
Info: MIN ATOMS PER PATCH    40
Info: EMPTY PATCH LOAD       40 ATOMS
Info: INITIAL TEMPERATURE    300
Info: CENTER OF MASS MOVING INITIALLY? NO
Info: DIELECTRIC             1
Info: EXCLUDE                SCALED ONE-FOUR
Info: 1-4 ELECTROSTATICS SCALED BY 0.833333
Info: MODIFIED 1-4 VDW PARAMETERS WILL BE USED
Info: DCD FILENAME           mobley_9478823_equil.dcd
Info: DCD FREQUENCY          100000
Info: DCD FIRST STEP         100000
Info: DCD FILE WILL CONTAIN UNIT CELL DATA
Info: XST FILENAME           mobley_9478823_equil.xst
Info: XST FREQUENCY          100000
Info: NO VELOCITY DCD OUTPUT
Info: NO FORCE DCD OUTPUT
Info: OUTPUT FILENAME        mobley_9478823_equil
Info: BINARY OUTPUT FILES WILL BE USED
Info: RESTART FILENAME       mobley_9478823_equil.restart
Info: RESTART FREQUENCY      100000
Info: BINARY RESTART FILES WILL BE USED
Info: CUTOFF                 9
Info: PAIRLIST DISTANCE      11
Info: PAIRLIST SHRINK RATE   0.01
Info: PAIRLIST GROW RATE     0.01
Info: PAIRLIST TRIGGER       0.3
Info: PAIRLISTS PER CYCLE    2
Info: PAIRLISTS ENABLED
Info: MARGIN                 8
Info: HYDROGEN GROUP CUTOFF  2.5
Info: PATCH DIMENSION        21.5
Info: ENERGY OUTPUT STEPS    100000
Info: ENERGY EVALUATION STEPS    100000
Info: OUTPUT ENERGY PRECISION 4
Info: CROSSTERM ENERGY INCLUDED IN DIHEDRAL
Info: TIMING OUTPUT STEPS    1000000
Info: PRESSURE OUTPUT STEPS  100000
Info: FIXED ATOMS ACTIVE
Info: LANGEVIN DYNAMICS ACTIVE
Info: LANGEVIN TEMPERATURE   30
Info: LANGEVIN USING BBK INTEGRATOR
Info: LANGEVIN DAMPING COEFFICIENT IS 1 INVERSE PS
Info: LANGEVIN DYNAMICS APPLIED TO HYDROGENS
Info: LANGEVIN PISTON PRESSURE CONTROL ACTIVE
Info:        TARGET PRESSURE IS 1.01325 BAR
Info:     OSCILLATION PERIOD IS 50 FS
Info:             DECAY TIME IS 25 FS
Info:     PISTON TEMPERATURE IS 300 K
Info:       PRESSURE CONTROL IS GROUP-BASED
Info:    INITIAL STRAIN RATE IS 0 0 0
Info:       CELL FLUCTUATION IS ISOTROPIC
Info: PARTICLE MESH EWALD (PME) ACTIVE
Info: PME TOLERANCE               1e-06
Info: PME EWALD COEFFICIENT       0.348832
Info: PME INTERPOLATION ORDER     4
Info: PME GRID DIMENSIONS         40 40 36
Info: PME MAXIMUM GRID SPACING    1
Info: FULL ELECTROSTATIC EVALUATION FREQUENCY      2
Info: USING VERLET I (r-RESPA) MTS SCHEME.
Info: C1 SPLITTING OF LONG RANGE ELECTROSTATICS
Info: PLACING ATOMS IN PATCHES BY HYDROGEN GROUPS
Info: RIGID BONDS TO HYDROGEN : ALL
Info:         ERROR TOLERANCE : 1e-08
Info:          MAX ITERATIONS : 100
Info: RIGID WATER USING SETTLE ALGORITHM
Info: RANDOM NUMBER SEED     1743742940
Info: USE HYDROGEN BONDS?    NO
Info: Using AMBER format force field!
Info: AMBER PARM FILE        mobley_9478823.prmtop
Info: COORDINATE PDB         mobley_9478823.pdb
Info: Exclusions will be read from PARM file!
Info: SCNB (VDW SCALING)     2
Info: USING ARITHMETIC MEAN TO COMBINE L-J SIGMA PARAMETERS
Info: BINARY COORDINATES     mobley_9478823_min.coor
Info: SUMMARY OF PARAMETERS:
Info: 6 BONDS
Info: 5 ANGLES
Info:   5 HARMONIC
Info:   0 COSINE-BASED
Info: 3 DIHEDRAL
Info: 0 IMPROPER
Info: 0 CROSSTERM
Info: 0 VDW
Info: 21 VDW_PAIRS
Info: 0 NBTHOLE_PAIRS
Info: STRUCTURE SUMMARY:
Info: 2946 ATOMS
Info: 2946 BONDS
Info: 30 ANGLES
Info: 42 DIHEDRALS
Info: 0 IMPROPERS
Info: 0 CROSSTERMS
Info: 3009 EXCLUSIONS
Info: 18 FIXED ATOMS
Info: 2938 RIGID BONDS
Info: 10 RIGID BONDS BETWEEN FIXED ATOMS
Info: 5856 DEGREES OF FREEDOM
Info: 984 HYDROGEN GROUPS
Info: 4 ATOMS IN LARGEST HYDROGEN GROUP
Info: 984 MIGRATION GROUPS
Info: 4 ATOMS IN LARGEST MIGRATION GROUP
Info: 8 HYDROGEN GROUPS WITH ALL ATOMS FIXED
Info: TOTAL MASS = 17689.8 amu
Info: TOTAL CHARGE = -9.99719e-05 e
Info: MASS DENSITY = 0.659069 g/cm^3
Info: ATOM DENSITY = 0.0660971 atoms/A^3
Info: ADDED 0 IMPLICIT EXCLUSIONS
Info: NONBONDED TABLE R-SQUARED SPACING: 0.0625
Info: NONBONDED TABLE SIZE: 705 POINTS
Info: REMOVING COM VELOCITY 0.191712 -0.160428 -0.112529
TCL: Running for 100000 steps
ETITLE: TS BOND ANGLE DIHED IMPRP ELECT VDW BOUNDARY MISC KINETIC TOTAL TEMP POTENTIAL TOTAL3 TEMPAVG PRESSURE GPRESSURE VOLUME PRESSAVG GPRESSAVG
ENERGY: 0 0.0000 0.0000 0.0000 0.0000 -13638.2898 2379.9615 0.0000 0.0000 1746.1762 -9512.1521 300.1079 -11258.3284 -9511.8036 300.1079 360.2370 385.4075 44570.8113 360.2370 385.4075
ENERGY: 100000 0.0000 0.0000 0.0000 0.0000 -14151.5129 2454.3614 0.0000 0.0000 169.4427 -11527.7088 29.1214 -11697.1515 -11527.3233 30.8533 239.2671 292.5648 28571.9621 3.5467 3.5243
TCL: Running 100000 steps at 60 kelvin.
TCL: Setting parameter langevinTemp to 60
TCL: Running for 100000 steps
ETITLE: TS BOND ANGLE DIHED IMPRP ELECT VDW BOUNDARY MISC KINETIC TOTAL TEMP POTENTIAL TOTAL3 TEMPAVG PRESSURE GPRESSURE VOLUME PRESSAVG GPRESSAVG
ENERGY: 100000 0.0000 0.0000 0.0000 0.0000 -14151.5129 2454.3614 0.0000 0.0000 169.3594 -11527.7921 29.1071 -11697.1515 -11527.4389 29.1071 244.0266 292.6231 28571.9621 244.0266 292.6231
ENERGY: 200000 0.0000 0.0000 0.0000 0.0000 -14120.8188 2445.5198 0.0000 0.0000 346.4205 -11328.8785 59.5378 -11675.2990 -11327.2218 59.9145 134.4339 204.3515 28640.1672 4.9299 4.9132
TCL: Running 100000 steps at 90 kelvin.
TCL: Setting parameter langevinTemp to 90
TCL: Running for 100000 steps
ETITLE: TS BOND ANGLE DIHED IMPRP ELECT VDW BOUNDARY MISC KINETIC TOTAL TEMP POTENTIAL TOTAL3 TEMPAVG PRESSURE GPRESSURE VOLUME PRESSAVG GPRESSAVG
ENERGY: 200000 0.0000 0.0000 0.0000 0.0000 -14120.8188 2445.5198 0.0000 0.0000 346.2595 -11329.0395 59.5101 -11675.2990 -11328.2080 59.5101 151.1240 204.8172 28640.1672 151.1240 204.8172
ENERGY: 300000 0.0000 0.0000 0.0000 0.0000 -13925.2313 2405.8233 0.0000 0.0000 533.5396 -10985.8684 91.6972 -11519.4080 -10983.9191 89.9882 542.2978 582.7339 28501.4639 4.0604 4.1565
TCL: Running 100000 steps at 120 kelvin.
TCL: Setting parameter langevinTemp to 120
TCL: Running for 100000 steps
ETITLE: TS BOND ANGLE DIHED IMPRP ELECT VDW BOUNDARY MISC KINETIC TOTAL TEMP POTENTIAL TOTAL3 TEMPAVG PRESSURE GPRESSURE VOLUME PRESSAVG GPRESSAVG
ENERGY: 300000 0.0000 0.0000 0.0000 0.0000 -13925.2313 2405.8233 0.0000 0.0000 533.2763 -10986.1316 91.6519 -11519.4080 -10984.8899 91.6519 522.5278 583.0326 28501.4639 522.5278 583.0326
ENERGY: 400000 0.0000 0.0000 0.0000 0.0000 -13675.0992 2247.9707 0.0000 0.0000 688.0378 -10739.0907 118.2501 -11427.1285 -10737.2456 120.0299 -575.3591 -502.5487 28627.6957 4.2780 4.3302
TCL: Running 100000 steps at 150 kelvin.
TCL: Setting parameter langevinTemp to 150
TCL: Running for 100000 steps
ETITLE: TS BOND ANGLE DIHED IMPRP ELECT VDW BOUNDARY MISC KINETIC TOTAL TEMP POTENTIAL TOTAL3 TEMPAVG PRESSURE GPRESSURE VOLUME PRESSAVG GPRESSAVG
ENERGY: 400000 0.0000 0.0000 0.0000 0.0000 -13675.0992 2247.9707 0.0000 0.0000 687.6871 -10739.4414 118.1899 -11427.1285 -10737.9007 118.1899 -558.4165 -502.1161 28627.6957 -558.4165 -502.1161
ENERGY: 500000 0.0000 0.0000 0.0000 0.0000 -13688.6809 2400.2185 0.0000 0.0000 873.5800 -10414.8824 150.1385 -11288.4624 -10412.7511 150.1776 1143.6355 1197.8468 28609.0346 3.0664 2.9901
TCL: Running 100000 steps at 180 kelvin.
TCL: Setting parameter langevinTemp to 180
TCL: Running for 100000 steps
ETITLE: TS BOND ANGLE DIHED IMPRP ELECT VDW BOUNDARY MISC KINETIC TOTAL TEMP POTENTIAL TOTAL3 TEMPAVG PRESSURE GPRESSURE VOLUME PRESSAVG GPRESSAVG
ENERGY: 500000 0.0000 0.0000 0.0000 0.0000 -13688.6809 2400.2185 0.0000 0.0000 873.1499 -10415.3125 150.0646 -11288.4624 -10413.7307 150.0646 1149.1091 1197.3660 28609.0346 1149.1091 1197.3660
ENERGY: 600000 0.0000 0.0000 0.0000 0.0000 -13015.2533 2028.2313 0.0000 0.0000 1029.8459 -9957.1761 176.9952 -10987.0221 -9955.3723 179.8341 -939.1378 -928.7445 29208.8214 4.5876 4.7216
TCL: Running 100000 steps at 210 kelvin.
TCL: Setting parameter langevinTemp to 210
TCL: Running for 100000 steps
ETITLE: TS BOND ANGLE DIHED IMPRP ELECT VDW BOUNDARY MISC KINETIC TOTAL TEMP POTENTIAL TOTAL3 TEMPAVG PRESSURE GPRESSURE VOLUME PRESSAVG GPRESSAVG
ENERGY: 600000 0.0000 0.0000 0.0000 0.0000 -13015.2533 2028.2313 0.0000 0.0000 1029.3256 -9957.6964 176.9058 -10987.0221 -9955.9252 176.9058 -980.0328 -928.7435 29208.8214 -980.0328 -928.7435
ENERGY: 700000 0.0000 0.0000 0.0000 0.0000 -12469.9916 1888.6034 0.0000 0.0000 1230.3725 -9351.0157 211.4589 -10581.3882 -9348.2190 210.1296 -79.6424 -44.6412 28605.3389 3.4440 3.5100
TCL: Running 100000 steps at 240 kelvin.
TCL: Setting parameter langevinTemp to 240
TCL: Running for 100000 steps
ETITLE: TS BOND ANGLE DIHED IMPRP ELECT VDW BOUNDARY MISC KINETIC TOTAL TEMP POTENTIAL TOTAL3 TEMPAVG PRESSURE GPRESSURE VOLUME PRESSAVG GPRESSAVG
ENERGY: 700000 0.0000 0.0000 0.0000 0.0000 -12469.9916 1888.6034 0.0000 0.0000 1229.7744 -9351.6138 211.3561 -10581.3882 -9349.1147 211.3561 -115.5693 -44.6254 28605.3389 -115.5693 -44.6254
ENERGY: 800000 0.0000 0.0000 0.0000 0.0000 -11696.8657 1629.1781 0.0000 0.0000 1414.1209 -8653.5667 243.0389 -10067.6876 -8649.8233 240.7735 -886.0264 -808.3136 29600.9168 3.6240 3.5481
TCL: Running 100000 steps at 270 kelvin.
TCL: Setting parameter langevinTemp to 270
TCL: Running for 100000 steps
ETITLE: TS BOND ANGLE DIHED IMPRP ELECT VDW BOUNDARY MISC KINETIC TOTAL TEMP POTENTIAL TOTAL3 TEMPAVG PRESSURE GPRESSURE VOLUME PRESSAVG GPRESSAVG
ENERGY: 800000 0.0000 0.0000 0.0000 0.0000 -11696.8657 1629.1781 0.0000 0.0000 1413.4148 -8654.2728 242.9176 -10067.6876 -8651.5868 242.9176 -892.8567 -808.1413 29600.9168 -892.8567 -808.1413
ENERGY: 900000 0.0000 0.0000 0.0000 0.0000 -11230.8723 1621.9616 0.0000 0.0000 1578.3202 -8030.5904 271.2592 -9608.9106 -8027.8069 270.2826 781.5357 836.6646 29267.7462 3.2071 3.1269
TCL: Running 1000000 steps at 300 kelvin.
TCL: Setting parameter langevinTemp to 300
TCL: Running for 1000000 steps
ETITLE: TS BOND ANGLE DIHED IMPRP ELECT VDW BOUNDARY MISC KINETIC TOTAL TEMP POTENTIAL TOTAL3 TEMPAVG PRESSURE GPRESSURE VOLUME PRESSAVG GPRESSAVG
ENERGY: 900000 0.0000 0.0000 0.0000 0.0000 -11230.8723 1621.9616 0.0000 0.0000 1577.5555 -8031.3551 271.1278 -9608.9106 -8029.0321 271.1278 748.7838 836.1706 29267.7462 748.7838 836.1706
ENERGY: 1100000 0.0000 0.0000 0.0000 0.0000 -10714.8091 1484.7874 0.0000 0.0000 1766.6611 -7463.3606 303.6285 -9230.0217 -7458.2103 300.2846 518.2788 578.3315 30219.2849 3.1977 3.2107
ENERGY: 1300000 0.0000 0.0000 0.0000 0.0000 -10668.5580 1401.2876 0.0000 0.0000 1758.8735 -7508.3968 302.2901 -9267.2703 -7504.8047 300.3082 -306.9533 -278.7177 30370.1542 3.2832 3.3679
ENERGY: 1500000 0.0000 0.0000 0.0000 0.0000 -10600.2608 1403.1521 0.0000 0.0000 1774.2365 -7422.8723 304.9305 -9197.1088 -7418.8267 300.6805 -156.1885 -109.3177 30804.4747 4.1939 4.0517
ENERGY: 1700000 0.0000 0.0000 0.0000 0.0000 -10527.2699 1321.2064 0.0000 0.0000 1698.6940 -7507.3694 291.9473 -9206.0635 -7503.8499 299.7027 -991.1684 -931.2822 30833.6193 4.0620 4.1235
ENERGY: 1900000 0.0000 0.0000 0.0000 0.0000 -10634.0388 1461.2993 0.0000 0.0000 1734.4762 -7438.2632 298.0970 -9172.7395 -7436.1685 300.8881 473.1048 510.7383 30283.6338 2.8591 2.9851
TCL: Exiting due to exit command.
