Info: SIMULATION PARAMETERS:
Info: TIMESTEP               2
Info: NUMBER OF STEPS        0
Info: STEPS PER CYCLE        10
Info: PERIODIC CELL BASIS 1  36.592 0 0
Info: PERIODIC CELL BASIS 2  0 34.696 0
Info: PERIODIC CELL BASIS 3  0 0 34.68
Info: PERIODIC CELL CENTER   0 0 0
Info: WRAPPING WATERS AROUND PERIODIC BOUNDARIES ON OUTPUT.
Info: WRAPPING ALL CLUSTERS AROUND PERIODIC BOUNDARIES ON OUTPUT.
Info: FIRST LDB TIMESTEP     50
Info: LAST LDB TIMESTEP     -1
Info: HOM BACKGROUND SCALING 1
Info: PME BACKGROUND SCALING 1
Info: MIN ATOMS PER PATCH    40
Info: EMPTY PATCH LOAD       40 ATOMS
Info: INITIAL TEMPERATURE    300
Info: CENTER OF MASS MOVING INITIALLY? NO
Info: DIELECTRIC             1
Info: EXCLUDE                SCALED ONE-FOUR
Info: 1-4 ELECTROSTATICS SCALED BY 0.833333
Info: MODIFIED 1-4 VDW PARAMETERS WILL BE USED
Info: DCD FILENAME           mobley_8221999_equil.dcd
Info: DCD FREQUENCY          100000
Info: DCD FIRST STEP         100000
Info: DCD FILE WILL CONTAIN UNIT CELL DATA
Info: XST FILENAME           mobley_8221999_equil.xst
Info: XST FREQUENCY          100000
Info: NO VELOCITY DCD OUTPUT
Info: NO FORCE DCD OUTPUT
Info: OUTPUT FILENAME        mobley_8221999_equil
Info: BINARY OUTPUT FILES WILL BE USED
Info: RESTART FILENAME       mobley_8221999_equil.restart
Info: RESTART FREQUENCY      100000
Info: BINARY RESTART FILES WILL BE USED
Info: CUTOFF                 9
Info: PAIRLIST DISTANCE      11
Info: PAIRLIST SHRINK RATE   0.01
Info: PAIRLIST GROW RATE     0.01
Info: PAIRLIST TRIGGER       0.3
Info: PAIRLISTS PER CYCLE    2
Info: PAIRLISTS ENABLED
Info: MARGIN                 8
Info: HYDROGEN GROUP CUTOFF  2.5
Info: PATCH DIMENSION        21.5
Info: ENERGY OUTPUT STEPS    100000
Info: ENERGY EVALUATION STEPS    100000
Info: OUTPUT ENERGY PRECISION 4
Info: CROSSTERM ENERGY INCLUDED IN DIHEDRAL
Info: TIMING OUTPUT STEPS    1000000
Info: PRESSURE OUTPUT STEPS  100000
Info: FIXED ATOMS ACTIVE
Info: LANGEVIN DYNAMICS ACTIVE
Info: LANGEVIN TEMPERATURE   30
Info: LANGEVIN USING BBK INTEGRATOR
Info: LANGEVIN DAMPING COEFFICIENT IS 1 INVERSE PS
Info: LANGEVIN DYNAMICS APPLIED TO HYDROGENS
Info: LANGEVIN PISTON PRESSURE CONTROL ACTIVE
Info:        TARGET PRESSURE IS 1.01325 BAR
Info:     OSCILLATION PERIOD IS 50 FS
Info:             DECAY TIME IS 25 FS
Info:     PISTON TEMPERATURE IS 300 K
Info:       PRESSURE CONTROL IS GROUP-BASED
Info:    INITIAL STRAIN RATE IS 0 0 0
Info:       CELL FLUCTUATION IS ISOTROPIC
Info: PARTICLE MESH EWALD (PME) ACTIVE
Info: PME TOLERANCE               1e-06
Info: PME EWALD COEFFICIENT       0.348832
Info: PME INTERPOLATION ORDER     4
Info: PME GRID DIMENSIONS         40 36 36
Info: PME MAXIMUM GRID SPACING    1
Info: FULL ELECTROSTATIC EVALUATION FREQUENCY      2
Info: USING VERLET I (r-RESPA) MTS SCHEME.
Info: C1 SPLITTING OF LONG RANGE ELECTROSTATICS
Info: PLACING ATOMS IN PATCHES BY HYDROGEN GROUPS
Info: RIGID BONDS TO HYDROGEN : ALL
Info:         ERROR TOLERANCE : 1e-08
Info:          MAX ITERATIONS : 100
Info: RIGID WATER USING SETTLE ALGORITHM
Info: RANDOM NUMBER SEED     1743901074
Info: USE HYDROGEN BONDS?    NO
Info: Using AMBER format force field!
Info: AMBER PARM FILE        mobley_8221999.prmtop
Info: COORDINATE PDB         mobley_8221999.pdb
Info: Exclusions will be read from PARM file!
Info: SCNB (VDW SCALING)     2
Info: USING ARITHMETIC MEAN TO COMBINE L-J SIGMA PARAMETERS
Info: BINARY COORDINATES     mobley_8221999_min.coor
Info: SUMMARY OF PARAMETERS:
Info: 6 BONDS
Info: 6 ANGLES
Info:   6 HARMONIC
Info:   0 COSINE-BASED
Info: 4 DIHEDRAL
Info: 0 IMPROPER
Info: 0 CROSSTERM
Info: 0 VDW
Info: 21 VDW_PAIRS
Info: 0 NBTHOLE_PAIRS
Info: STRUCTURE SUMMARY:
Info: 2976 ATOMS
Info: 2975 BONDS
Info: 19 ANGLES
Info: 21 DIHEDRALS
Info: 0 IMPROPERS
Info: 0 CROSSTERMS
Info: 3015 EXCLUSIONS
Info: 12 FIXED ATOMS
Info: 2971 RIGID BONDS
Info: 7 RIGID BONDS BETWEEN FIXED ATOMS
Info: 5928 DEGREES OF FREEDOM
Info: 993 HYDROGEN GROUPS
Info: 4 ATOMS IN LARGEST HYDROGEN GROUP
Info: 993 MIGRATION GROUPS
Info: 4 ATOMS IN LARGEST MIGRATION GROUP
Info: 5 HYDROGEN GROUPS WITH ALL ATOMS FIXED
Info: TOTAL MASS = 17868.9 amu
Info: TOTAL CHARGE = -0.000200013 e
Info: MASS DENSITY = 0.673927 g/cm^3
Info: ATOM DENSITY = 0.0675909 atoms/A^3
Info: ADDED 0 IMPLICIT EXCLUSIONS
Info: NONBONDED TABLE R-SQUARED SPACING: 0.0625
Info: NONBONDED TABLE SIZE: 705 POINTS
Info: REMOVING COM VELOCITY -0.307585 0.106672 -0.149481
TCL: Running for 100000 steps
ETITLE: TS BOND ANGLE DIHED IMPRP ELECT VDW BOUNDARY MISC KINETIC TOTAL TEMP POTENTIAL TOTAL3 TEMPAVG PRESSURE GPRESSURE VOLUME PRESSAVG GPRESSAVG
ENERGY: 0 0.0000 0.0000 0.0000 0.0000 -13863.9700 2423.1515 0.0000 0.0000 1822.0011 -9618.8174 309.3363 -11440.8185 -9618.4675 309.3363 375.5575 403.7801 44029.5904 375.5575 403.7801
ENERGY: 100000 0.0000 0.0000 0.0000 0.0000 -14412.0348 2575.3930 0.0000 0.0000 175.2812 -11661.3606 29.7589 -11836.6418 -11660.9335 30.9256 613.7692 658.6501 29714.7768 4.6427 4.6041
TCL: Running 100000 steps at 60 kelvin.
TCL: Setting parameter langevinTemp to 60
TCL: Running for 100000 steps
ETITLE: TS BOND ANGLE DIHED IMPRP ELECT VDW BOUNDARY MISC KINETIC TOTAL TEMP POTENTIAL TOTAL3 TEMPAVG PRESSURE GPRESSURE VOLUME PRESSAVG GPRESSAVG
ENERGY: 100000 0.0000 0.0000 0.0000 0.0000 -14412.0348 2575.3930 0.0000 0.0000 175.1914 -11661.4504 29.7437 -11836.6418 -11661.0738 29.7437 596.4026 658.5382 29714.7768 596.4026 658.5382
ENERGY: 200000 0.0000 0.0000 0.0000 0.0000 -14218.8866 2444.2538 0.0000 0.0000 344.0189 -11430.6139 58.4069 -11774.6328 -11429.9147 60.0124 -87.5053 -20.2546 29160.8417 4.1754 4.2087
TCL: Running 100000 steps at 90 kelvin.
TCL: Setting parameter langevinTemp to 90
TCL: Running for 100000 steps
ETITLE: TS BOND ANGLE DIHED IMPRP ELECT VDW BOUNDARY MISC KINETIC TOTAL TEMP POTENTIAL TOTAL3 TEMPAVG PRESSURE GPRESSURE VOLUME PRESSAVG GPRESSAVG
ENERGY: 200000 0.0000 0.0000 0.0000 0.0000 -14218.8866 2444.2538 0.0000 0.0000 343.8391 -11430.7937 58.3764 -11774.6328 -11430.0282 58.3764 -69.0817 -20.3204 29160.8417 -69.0817 -20.3204
ENERGY: 300000 0.0000 0.0000 0.0000 0.0000 -14112.4300 2433.5152 0.0000 0.0000 534.2028 -11144.7119 90.6960 -11678.9147 -11142.7732 89.8459 129.9812 212.8711 29234.0747 4.1194 4.1157
TCL: Running 100000 steps at 120 kelvin.
TCL: Setting parameter langevinTemp to 120
TCL: Running for 100000 steps
ETITLE: TS BOND ANGLE DIHED IMPRP ELECT VDW BOUNDARY MISC KINETIC TOTAL TEMP POTENTIAL TOTAL3 TEMPAVG PRESSURE GPRESSURE VOLUME PRESSAVG GPRESSAVG
ENERGY: 300000 0.0000 0.0000 0.0000 0.0000 -14112.4300 2433.5152 0.0000 0.0000 533.9389 -11144.9759 90.6512 -11678.9147 -11143.6914 90.6512 161.3434 213.2285 29234.0747 161.3434 213.2285
ENERGY: 400000 0.0000 0.0000 0.0000 0.0000 -14098.8302 2553.3697 0.0000 0.0000 719.4132 -10826.0473 122.1407 -11545.4605 -10824.6796 119.7918 1518.6018 1584.0395 29422.0516 4.0760 3.9532
TCL: Running 100000 steps at 150 kelvin.
TCL: Setting parameter langevinTemp to 150
TCL: Running for 100000 steps
ETITLE: TS BOND ANGLE DIHED IMPRP ELECT VDW BOUNDARY MISC KINETIC TOTAL TEMP POTENTIAL TOTAL3 TEMPAVG PRESSURE GPRESSURE VOLUME PRESSAVG GPRESSAVG
ENERGY: 400000 0.0000 0.0000 0.0000 0.0000 -14098.8302 2553.3697 0.0000 0.0000 719.0639 -10826.3966 122.0815 -11545.4605 -10825.0926 122.0815 1533.2770 1584.6408 29422.0516 1533.2770 1584.6408
ENERGY: 500000 0.0000 0.0000 0.0000 0.0000 -13842.6776 2412.3192 0.0000 0.0000 865.4208 -10564.9376 146.9297 -11430.3584 -10563.1668 150.0937 832.2009 847.9921 29285.9994 4.9492 4.8955
TCL: Running 100000 steps at 180 kelvin.
TCL: Setting parameter langevinTemp to 180
TCL: Running for 100000 steps
ETITLE: TS BOND ANGLE DIHED IMPRP ELECT VDW BOUNDARY MISC KINETIC TOTAL TEMP POTENTIAL TOTAL3 TEMPAVG PRESSURE GPRESSURE VOLUME PRESSAVG GPRESSAVG
ENERGY: 500000 0.0000 0.0000 0.0000 0.0000 -13842.6776 2412.3192 0.0000 0.0000 864.9555 -10565.4028 146.8507 -11430.3584 -10563.8940 146.8507 792.6080 847.9054 29285.9994 792.6080 847.9054
ENERGY: 600000 0.0000 0.0000 0.0000 0.0000 -13295.8673 2221.4328 0.0000 0.0000 1068.6120 -10005.8225 181.4271 -11074.4344 -10004.0571 179.8288 1048.6102 1093.5649 28680.2662 3.1587 3.0970
TCL: Running 100000 steps at 210 kelvin.
TCL: Setting parameter langevinTemp to 210
TCL: Running for 100000 steps
ETITLE: TS BOND ANGLE DIHED IMPRP ELECT VDW BOUNDARY MISC KINETIC TOTAL TEMP POTENTIAL TOTAL3 TEMPAVG PRESSURE GPRESSURE VOLUME PRESSAVG GPRESSAVG
ENERGY: 600000 0.0000 0.0000 0.0000 0.0000 -13295.8673 2221.4328 0.0000 0.0000 1068.0870 -10006.3474 181.3380 -11074.4344 -10004.5863 181.3380 1038.2227 1094.2706 28680.2662 1038.2227 1094.2706
ENERGY: 700000 0.0000 0.0000 0.0000 0.0000 -12435.0821 1857.0795 0.0000 0.0000 1222.8198 -9355.1829 207.6083 -10578.0027 -9352.7033 209.4069 -307.4999 -241.0130 29030.1266 2.4720 2.5257
TCL: Running 100000 steps at 240 kelvin.
TCL: Setting parameter langevinTemp to 240
TCL: Running for 100000 steps
ETITLE: TS BOND ANGLE DIHED IMPRP ELECT VDW BOUNDARY MISC KINETIC TOTAL TEMP POTENTIAL TOTAL3 TEMPAVG PRESSURE GPRESSURE VOLUME PRESSAVG GPRESSAVG
ENERGY: 700000 0.0000 0.0000 0.0000 0.0000 -12435.0821 1857.0795 0.0000 0.0000 1222.2194 -9355.7833 207.5063 -10578.0027 -9353.7780 207.5063 -316.5138 -241.1577 29030.1266 -316.5138 -241.1577
ENERGY: 800000 0.0000 0.0000 0.0000 0.0000 -11872.9088 1653.5664 0.0000 0.0000 1387.0384 -8832.3040 235.4890 -10219.3424 -8832.1801 239.4775 -718.9901 -636.5132 29374.0514 3.4957 3.4694
TCL: Running 100000 steps at 270 kelvin.
TCL: Setting parameter langevinTemp to 270
TCL: Running for 100000 steps
ETITLE: TS BOND ANGLE DIHED IMPRP ELECT VDW BOUNDARY MISC KINETIC TOTAL TEMP POTENTIAL TOTAL3 TEMPAVG PRESSURE GPRESSURE VOLUME PRESSAVG GPRESSAVG
ENERGY: 800000 0.0000 0.0000 0.0000 0.0000 -11872.9088 1653.5664 0.0000 0.0000 1386.3418 -8833.0005 235.3708 -10219.3424 -8830.7218 235.3708 -717.2248 -639.2598 29374.0514 -717.2248 -639.2598
ENERGY: 900000 0.0000 0.0000 0.0000 0.0000 -11282.8621 1526.0080 0.0000 0.0000 1621.4742 -8135.3799 275.2911 -9756.8540 -8130.9011 269.9613 -489.8787 -383.0813 30073.2173 3.4973 3.4591
TCL: Running 1000000 steps at 300 kelvin.
TCL: Setting parameter langevinTemp to 300
TCL: Running for 1000000 steps
ETITLE: TS BOND ANGLE DIHED IMPRP ELECT VDW BOUNDARY MISC KINETIC TOTAL TEMP POTENTIAL TOTAL3 TEMPAVG PRESSURE GPRESSURE VOLUME PRESSAVG GPRESSAVG
ENERGY: 900000 0.0000 0.0000 0.0000 0.0000 -11282.8621 1526.0080 0.0000 0.0000 1620.6914 -8136.1627 275.1582 -9756.8540 -8133.8624 275.1582 -464.2931 -381.6722 30073.2173 -464.2931 -381.6722
ENERGY: 1100000 0.0000 0.0000 0.0000 0.0000 -10931.2296 1501.4537 0.0000 0.0000 1777.0705 -7652.7053 301.7080 -9429.7759 -7648.0667 300.0432 274.6267 305.0737 30511.0923 4.4332 4.2749
ENERGY: 1300000 0.0000 0.0000 0.0000 0.0000 -10934.6915 1508.9345 0.0000 0.0000 1717.6087 -7708.1484 291.6127 -9425.7571 -7703.4864 299.5221 99.8948 119.6713 30946.3089 3.1658 3.2326
ENERGY: 1500000 0.0000 0.0000 0.0000 0.0000 -10884.8744 1442.0488 0.0000 0.0000 1797.1028 -7645.7228 305.1091 -9442.8256 -7642.7468 300.2950 -241.9282 -134.6924 30491.7367 4.6598 4.5632
ENERGY: 1700000 0.0000 0.0000 0.0000 0.0000 -10728.1508 1376.3612 0.0000 0.0000 1761.0051 -7590.7845 298.9805 -9351.7896 -7586.0769 300.3704 -594.3358 -501.0549 30787.7190 3.9107 3.7689
ENERGY: 1900000 0.0000 0.0000 0.0000 0.0000 -10856.6159 1450.8984 0.0000 0.0000 1794.7731 -7610.9445 304.7135 -9405.7176 -7607.7316 300.1185 -360.6522 -227.7272 31082.4335 2.7942 2.7714
TCL: Exiting due to exit command.
