Info: SIMULATION PARAMETERS:
Info: TIMESTEP               2
Info: NUMBER OF STEPS        0
Info: STEPS PER CYCLE        10
Info: PERIODIC CELL BASIS 1  36.592 0 0
Info: PERIODIC CELL BASIS 2  0 34.26 0
Info: PERIODIC CELL BASIS 3  0 0 35.723
Info: PERIODIC CELL CENTER   0 0 0
Info: WRAPPING WATERS AROUND PERIODIC BOUNDARIES ON OUTPUT.
Info: WRAPPING ALL CLUSTERS AROUND PERIODIC BOUNDARIES ON OUTPUT.
Info: FIRST LDB TIMESTEP     50
Info: LAST LDB TIMESTEP     -1
Info: HOM BACKGROUND SCALING 1
Info: PME BACKGROUND SCALING 1
Info: MIN ATOMS PER PATCH    40
Info: EMPTY PATCH LOAD       40 ATOMS
Info: INITIAL TEMPERATURE    300
Info: CENTER OF MASS MOVING INITIALLY? NO
Info: DIELECTRIC             1
Info: EXCLUDE                SCALED ONE-FOUR
Info: 1-4 ELECTROSTATICS SCALED BY 0.833333
Info: MODIFIED 1-4 VDW PARAMETERS WILL BE USED
Info: DCD FILENAME           mobley_5935995_equil.dcd
Info: DCD FREQUENCY          100000
Info: DCD FIRST STEP         100000
Info: DCD FILE WILL CONTAIN UNIT CELL DATA
Info: XST FILENAME           mobley_5935995_equil.xst
Info: XST FREQUENCY          100000
Info: NO VELOCITY DCD OUTPUT
Info: NO FORCE DCD OUTPUT
Info: OUTPUT FILENAME        mobley_5935995_equil
Info: BINARY OUTPUT FILES WILL BE USED
Info: RESTART FILENAME       mobley_5935995_equil.restart
Info: RESTART FREQUENCY      100000
Info: BINARY RESTART FILES WILL BE USED
Info: CUTOFF                 9
Info: PAIRLIST DISTANCE      11
Info: PAIRLIST SHRINK RATE   0.01
Info: PAIRLIST GROW RATE     0.01
Info: PAIRLIST TRIGGER       0.3
Info: PAIRLISTS PER CYCLE    2
Info: PAIRLISTS ENABLED
Info: MARGIN                 8
Info: HYDROGEN GROUP CUTOFF  2.5
Info: PATCH DIMENSION        21.5
Info: ENERGY OUTPUT STEPS    100000
Info: ENERGY EVALUATION STEPS    100000
Info: OUTPUT ENERGY PRECISION 4
Info: CROSSTERM ENERGY INCLUDED IN DIHEDRAL
Info: TIMING OUTPUT STEPS    1000000
Info: PRESSURE OUTPUT STEPS  100000
Info: FIXED ATOMS ACTIVE
Info: LANGEVIN DYNAMICS ACTIVE
Info: LANGEVIN TEMPERATURE   30
Info: LANGEVIN USING BBK INTEGRATOR
Info: LANGEVIN DAMPING COEFFICIENT IS 1 INVERSE PS
Info: LANGEVIN DYNAMICS APPLIED TO HYDROGENS
Info: LANGEVIN PISTON PRESSURE CONTROL ACTIVE
Info:        TARGET PRESSURE IS 1.01325 BAR
Info:     OSCILLATION PERIOD IS 50 FS
Info:             DECAY TIME IS 25 FS
Info:     PISTON TEMPERATURE IS 300 K
Info:       PRESSURE CONTROL IS GROUP-BASED
Info:    INITIAL STRAIN RATE IS 0 0 0
Info:       CELL FLUCTUATION IS ISOTROPIC
Info: PARTICLE MESH EWALD (PME) ACTIVE
Info: PME TOLERANCE               1e-06
Info: PME EWALD COEFFICIENT       0.348832
Info: PME INTERPOLATION ORDER     4
Info: PME GRID DIMENSIONS         40 36 36
Info: PME MAXIMUM GRID SPACING    1
Info: FULL ELECTROSTATIC EVALUATION FREQUENCY      2
Info: USING VERLET I (r-RESPA) MTS SCHEME.
Info: C1 SPLITTING OF LONG RANGE ELECTROSTATICS
Info: PLACING ATOMS IN PATCHES BY HYDROGEN GROUPS
Info: RIGID BONDS TO HYDROGEN : ALL
Info:         ERROR TOLERANCE : 1e-08
Info:          MAX ITERATIONS : 100
Info: RIGID WATER USING SETTLE ALGORITHM
Info: RANDOM NUMBER SEED     1743764227
Info: USE HYDROGEN BONDS?    NO
Info: Using AMBER format force field!
Info: AMBER PARM FILE        mobley_5935995.prmtop
Info: COORDINATE PDB         mobley_5935995.pdb
Info: Exclusions will be read from PARM file!
Info: SCNB (VDW SCALING)     2
Info: USING ARITHMETIC MEAN TO COMBINE L-J SIGMA PARAMETERS
Info: BINARY COORDINATES     mobley_5935995_min.coor
Info: SUMMARY OF PARAMETERS:
Info: 4 BONDS
Info: 3 ANGLES
Info:   3 HARMONIC
Info:   0 COSINE-BASED
Info: 5 DIHEDRAL
Info: 0 IMPROPER
Info: 0 CROSSTERM
Info: 0 VDW
Info: 10 VDW_PAIRS
Info: 0 NBTHOLE_PAIRS
Info: STRUCTURE SUMMARY:
Info: 2981 ATOMS
Info: 2980 BONDS
Info: 36 ANGLES
Info: 51 DIHEDRALS
Info: 0 IMPROPERS
Info: 0 CROSSTERMS
Info: 3061 EXCLUSIONS
Info: 20 FIXED ATOMS
Info: 2975 RIGID BONDS
Info: 14 RIGID BONDS BETWEEN FIXED ATOMS
Info: 5922 DEGREES OF FREEDOM
Info: 993 HYDROGEN GROUPS
Info: 4 ATOMS IN LARGEST HYDROGEN GROUP
Info: 993 MIGRATION GROUPS
Info: 4 ATOMS IN LARGEST MIGRATION GROUP
Info: 6 HYDROGEN GROUPS WITH ALL ATOMS FIXED
Info: TOTAL MASS = 17868 amu
Info: TOTAL CHARGE = 0.000200015 e
Info: MASS DENSITY = 0.662541 g/cm^3
Info: ATOM DENSITY = 0.0665642 atoms/A^3
Info: ADDED 0 IMPLICIT EXCLUSIONS
Info: NONBONDED TABLE R-SQUARED SPACING: 0.0625
Info: NONBONDED TABLE SIZE: 705 POINTS
Info: REMOVING COM VELOCITY -0.0539988 -0.0610231 0.127739
TCL: Running for 100000 steps
ETITLE: TS BOND ANGLE DIHED IMPRP ELECT VDW BOUNDARY MISC KINETIC TOTAL TEMP POTENTIAL TOTAL3 TEMPAVG PRESSURE GPRESSURE VOLUME PRESSAVG GPRESSAVG
ENERGY: 0 0.0000 0.0000 0.0000 0.0000 -13754.2002 2422.7667 0.0000 0.0000 1748.7343 -9582.6992 297.1980 -11331.4335 -9582.3771 297.1980 382.2017 419.4767 44783.8503 382.2017 419.4767
ENERGY: 100000 0.0000 0.0000 0.0000 0.0000 -14222.5869 2455.1578 0.0000 0.0000 173.5126 -11593.9165 29.4885 -11767.4291 -11593.4895 30.9111 -208.3290 -148.9491 29824.0522 4.0887 4.0793
TCL: Running 100000 steps at 60 kelvin.
TCL: Setting parameter langevinTemp to 60
TCL: Running for 100000 steps
ETITLE: TS BOND ANGLE DIHED IMPRP ELECT VDW BOUNDARY MISC KINETIC TOTAL TEMP POTENTIAL TOTAL3 TEMPAVG PRESSURE GPRESSURE VOLUME PRESSAVG GPRESSAVG
ENERGY: 100000 0.0000 0.0000 0.0000 0.0000 -14222.5869 2455.1578 0.0000 0.0000 173.4239 -11594.0052 29.4734 -11767.4291 -11593.6624 29.4734 -218.6926 -148.9893 29824.0522 -218.6926 -148.9893
ENERGY: 200000 0.0000 0.0000 0.0000 0.0000 -14186.4009 2413.5442 0.0000 0.0000 354.0710 -11418.7857 60.1745 -11772.8567 -11417.9642 59.9405 -391.0003 -322.8350 29337.9008 3.2673 3.2389
TCL: Running 100000 steps at 90 kelvin.
TCL: Setting parameter langevinTemp to 90
TCL: Running for 100000 steps
ETITLE: TS BOND ANGLE DIHED IMPRP ELECT VDW BOUNDARY MISC KINETIC TOTAL TEMP POTENTIAL TOTAL3 TEMPAVG PRESSURE GPRESSURE VOLUME PRESSAVG GPRESSAVG
ENERGY: 200000 0.0000 0.0000 0.0000 0.0000 -14186.4009 2413.5442 0.0000 0.0000 353.8921 -11418.9647 60.1441 -11772.8567 -11418.0919 60.1441 -387.8213 -322.9201 29337.9008 -387.8213 -322.9201
ENERGY: 300000 0.0000 0.0000 0.0000 0.0000 -14145.6093 2464.2994 0.0000 0.0000 512.5377 -11168.7722 87.1059 -11681.3099 -11167.3616 90.1014 593.0599 662.1824 28831.3507 2.9840 3.0158
TCL: Running 100000 steps at 120 kelvin.
TCL: Setting parameter langevinTemp to 120
TCL: Running for 100000 steps
ETITLE: TS BOND ANGLE DIHED IMPRP ELECT VDW BOUNDARY MISC KINETIC TOTAL TEMP POTENTIAL TOTAL3 TEMPAVG PRESSURE GPRESSURE VOLUME PRESSAVG GPRESSAVG
ENERGY: 300000 0.0000 0.0000 0.0000 0.0000 -14145.6093 2464.2994 0.0000 0.0000 512.2774 -11169.0325 87.0617 -11681.3099 -11168.0809 87.0617 609.8293 661.6808 28831.3507 609.8293 661.6808
ENERGY: 400000 0.0000 0.0000 0.0000 0.0000 -13894.8302 2333.3642 0.0000 0.0000 702.2150 -10859.2510 119.3417 -11561.4660 -10858.5064 119.7703 -134.7923 -117.6168 29074.7527 4.1305 3.9259
TCL: Running 100000 steps at 150 kelvin.
TCL: Setting parameter langevinTemp to 150
TCL: Running for 100000 steps
ETITLE: TS BOND ANGLE DIHED IMPRP ELECT VDW BOUNDARY MISC KINETIC TOTAL TEMP POTENTIAL TOTAL3 TEMPAVG PRESSURE GPRESSURE VOLUME PRESSAVG GPRESSAVG
ENERGY: 400000 0.0000 0.0000 0.0000 0.0000 -13894.8302 2333.3642 0.0000 0.0000 701.8519 -10859.6141 119.2800 -11561.4660 -10858.0099 119.2800 -169.8093 -118.8084 29074.7527 -169.8093 -118.8084
ENERGY: 500000 0.0000 0.0000 0.0000 0.0000 -13597.1790 2239.4900 0.0000 0.0000 883.4932 -10474.1958 150.1500 -11357.6890 -10472.0652 149.6648 -126.6897 -98.0149 29134.8635 3.4936 3.4448
TCL: Running 100000 steps at 180 kelvin.
TCL: Setting parameter langevinTemp to 180
TCL: Running for 100000 steps
ETITLE: TS BOND ANGLE DIHED IMPRP ELECT VDW BOUNDARY MISC KINETIC TOTAL TEMP POTENTIAL TOTAL3 TEMPAVG PRESSURE GPRESSURE VOLUME PRESSAVG GPRESSAVG
ENERGY: 500000 0.0000 0.0000 0.0000 0.0000 -13597.1790 2239.4900 0.0000 0.0000 883.0516 -10474.6375 150.0749 -11357.6890 -10473.0583 150.0749 -156.3451 -98.2391 29134.8635 -156.3451 -98.2391
ENERGY: 600000 0.0000 0.0000 0.0000 0.0000 -13160.0389 2098.0681 0.0000 0.0000 1066.7699 -9995.2009 181.2979 -11061.9709 -9991.9058 180.0504 52.6909 113.5087 28672.8846 2.0826 2.0998
TCL: Running 100000 steps at 210 kelvin.
TCL: Setting parameter langevinTemp to 210
TCL: Running for 100000 steps
ETITLE: TS BOND ANGLE DIHED IMPRP ELECT VDW BOUNDARY MISC KINETIC TOTAL TEMP POTENTIAL TOTAL3 TEMPAVG PRESSURE GPRESSURE VOLUME PRESSAVG GPRESSAVG
ENERGY: 600000 0.0000 0.0000 0.0000 0.0000 -13160.0389 2098.0681 0.0000 0.0000 1066.2705 -9995.7004 181.2130 -11061.9709 -9993.8162 181.2130 54.1516 113.8719 28672.8846 54.1516 113.8719
ENERGY: 700000 0.0000 0.0000 0.0000 0.0000 -12564.9249 1995.0843 0.0000 0.0000 1276.0557 -9293.7849 216.8661 -10569.8405 -9289.9979 209.6568 965.3377 1076.8191 28767.9530 4.6553 4.6276
TCL: Running 100000 steps at 240 kelvin.
TCL: Setting parameter langevinTemp to 240
TCL: Running for 100000 steps
ETITLE: TS BOND ANGLE DIHED IMPRP ELECT VDW BOUNDARY MISC KINETIC TOTAL TEMP POTENTIAL TOTAL3 TEMPAVG PRESSURE GPRESSURE VOLUME PRESSAVG GPRESSAVG
ENERGY: 700000 0.0000 0.0000 0.0000 0.0000 -12564.9249 1995.0843 0.0000 0.0000 1275.4265 -9294.4140 216.7591 -10569.8405 -9292.6410 216.7591 986.2359 1078.9778 28767.9530 986.2359 1078.9778
ENERGY: 800000 0.0000 0.0000 0.0000 0.0000 -11915.8987 1759.5266 0.0000 0.0000 1370.9325 -8785.4396 232.9904 -10156.3721 -8781.0224 239.7044 69.7804 157.5785 29730.4198 2.8129 2.7611
TCL: Running 100000 steps at 270 kelvin.
TCL: Setting parameter langevinTemp to 270
TCL: Running for 100000 steps
ETITLE: TS BOND ANGLE DIHED IMPRP ELECT VDW BOUNDARY MISC KINETIC TOTAL TEMP POTENTIAL TOTAL3 TEMPAVG PRESSURE GPRESSURE VOLUME PRESSAVG GPRESSAVG
ENERGY: 800000 0.0000 0.0000 0.0000 0.0000 -11915.8987 1759.5266 0.0000 0.0000 1370.2254 -8786.1467 232.8702 -10156.3721 -8784.2195 232.8702 89.5960 158.0287 29730.4198 89.5960 158.0287
ENERGY: 900000 0.0000 0.0000 0.0000 0.0000 -11231.2944 1534.5804 0.0000 0.0000 1615.1347 -8081.5792 274.4927 -9696.7140 -8075.5380 269.4118 -340.3047 -269.7386 30362.4926 3.5470 3.6966
TCL: Running 1000000 steps at 300 kelvin.
TCL: Setting parameter langevinTemp to 300
TCL: Running for 1000000 steps
ETITLE: TS BOND ANGLE DIHED IMPRP ELECT VDW BOUNDARY MISC KINETIC TOTAL TEMP POTENTIAL TOTAL3 TEMPAVG PRESSURE GPRESSURE VOLUME PRESSAVG GPRESSAVG
ENERGY: 900000 0.0000 0.0000 0.0000 0.0000 -11231.2944 1534.5804 0.0000 0.0000 1614.3231 -8082.3909 274.3547 -9696.7140 -8079.6588 274.3547 -349.4563 -268.4093 30362.4926 -349.4563 -268.4093
ENERGY: 1100000 0.0000 0.0000 0.0000 0.0000 -10824.9278 1510.4166 0.0000 0.0000 1707.6643 -7606.8470 290.2181 -9314.5113 -7604.0035 299.7905 357.7332 479.7854 30740.6650 4.5277 4.5530
ENERGY: 1300000 0.0000 0.0000 0.0000 0.0000 -10697.5709 1345.3652 0.0000 0.0000 1796.1395 -7556.0661 305.2545 -9352.2057 -7553.6990 300.3093 -989.0738 -854.5291 30969.2049 2.4718 2.5299
ENERGY: 1500000 0.0000 0.0000 0.0000 0.0000 -10763.5104 1505.0960 0.0000 0.0000 1791.0517 -7467.3627 304.3898 -9258.4144 -7468.3263 300.2984 469.6917 524.9786 31082.2784 4.2231 4.3696
ENERGY: 1700000 0.0000 0.0000 0.0000 0.0000 -10807.8465 1467.2946 0.0000 0.0000 1796.1038 -7544.4481 305.2484 -9340.5519 -7538.9020 300.5084 -22.2558 4.3859 31086.8435 3.7614 3.8049
ENERGY: 1900000 0.0000 0.0000 0.0000 0.0000 -10850.9599 1500.2924 0.0000 0.0000 1788.2397 -7562.4278 303.9119 -9350.6675 -7561.1340 300.5151 227.8927 326.9292 31134.2369 3.3516 3.5598
TCL: Exiting due to exit command.
