Info: SIMULATION PARAMETERS:
Info: TIMESTEP               2
Info: NUMBER OF STEPS        0
Info: STEPS PER CYCLE        10
Info: PERIODIC CELL BASIS 1  36.592 0 0
Info: PERIODIC CELL BASIS 2  0 35.411 0
Info: PERIODIC CELL BASIS 3  0 0 34.68
Info: PERIODIC CELL CENTER   0 0 0
Info: WRAPPING WATERS AROUND PERIODIC BOUNDARIES ON OUTPUT.
Info: WRAPPING ALL CLUSTERS AROUND PERIODIC BOUNDARIES ON OUTPUT.
Info: FIRST LDB TIMESTEP     50
Info: LAST LDB TIMESTEP     -1
Info: HOM BACKGROUND SCALING 1
Info: PME BACKGROUND SCALING 1
Info: MIN ATOMS PER PATCH    40
Info: EMPTY PATCH LOAD       40 ATOMS
Info: INITIAL TEMPERATURE    300
Info: CENTER OF MASS MOVING INITIALLY? NO
Info: DIELECTRIC             1
Info: EXCLUDE                SCALED ONE-FOUR
Info: 1-4 ELECTROSTATICS SCALED BY 0.833333
Info: MODIFIED 1-4 VDW PARAMETERS WILL BE USED
Info: DCD FILENAME           mobley_6733657_equil.dcd
Info: DCD FREQUENCY          100000
Info: DCD FIRST STEP         100000
Info: DCD FILE WILL CONTAIN UNIT CELL DATA
Info: XST FILENAME           mobley_6733657_equil.xst
Info: XST FREQUENCY          100000
Info: NO VELOCITY DCD OUTPUT
Info: NO FORCE DCD OUTPUT
Info: OUTPUT FILENAME        mobley_6733657_equil
Info: BINARY OUTPUT FILES WILL BE USED
Info: RESTART FILENAME       mobley_6733657_equil.restart
Info: RESTART FREQUENCY      100000
Info: BINARY RESTART FILES WILL BE USED
Info: CUTOFF                 9
Info: PAIRLIST DISTANCE      11
Info: PAIRLIST SHRINK RATE   0.01
Info: PAIRLIST GROW RATE     0.01
Info: PAIRLIST TRIGGER       0.3
Info: PAIRLISTS PER CYCLE    2
Info: PAIRLISTS ENABLED
Info: MARGIN                 8
Info: HYDROGEN GROUP CUTOFF  2.5
Info: PATCH DIMENSION        21.5
Info: ENERGY OUTPUT STEPS    100000
Info: ENERGY EVALUATION STEPS    100000
Info: OUTPUT ENERGY PRECISION 4
Info: CROSSTERM ENERGY INCLUDED IN DIHEDRAL
Info: TIMING OUTPUT STEPS    1000000
Info: PRESSURE OUTPUT STEPS  100000
Info: FIXED ATOMS ACTIVE
Info: LANGEVIN DYNAMICS ACTIVE
Info: LANGEVIN TEMPERATURE   30
Info: LANGEVIN USING BBK INTEGRATOR
Info: LANGEVIN DAMPING COEFFICIENT IS 1 INVERSE PS
Info: LANGEVIN DYNAMICS APPLIED TO HYDROGENS
Info: LANGEVIN PISTON PRESSURE CONTROL ACTIVE
Info:        TARGET PRESSURE IS 1.01325 BAR
Info:     OSCILLATION PERIOD IS 50 FS
Info:             DECAY TIME IS 25 FS
Info:     PISTON TEMPERATURE IS 300 K
Info:       PRESSURE CONTROL IS GROUP-BASED
Info:    INITIAL STRAIN RATE IS 0 0 0
Info:       CELL FLUCTUATION IS ISOTROPIC
Info: PARTICLE MESH EWALD (PME) ACTIVE
Info: PME TOLERANCE               1e-06
Info: PME EWALD COEFFICIENT       0.348832
Info: PME INTERPOLATION ORDER     4
Info: PME GRID DIMENSIONS         40 36 36
Info: PME MAXIMUM GRID SPACING    1
Info: FULL ELECTROSTATIC EVALUATION FREQUENCY      2
Info: USING VERLET I (r-RESPA) MTS SCHEME.
Info: C1 SPLITTING OF LONG RANGE ELECTROSTATICS
Info: PLACING ATOMS IN PATCHES BY HYDROGEN GROUPS
Info: RIGID BONDS TO HYDROGEN : ALL
Info:         ERROR TOLERANCE : 1e-08
Info:          MAX ITERATIONS : 100
Info: RIGID WATER USING SETTLE ALGORITHM
Info: RANDOM NUMBER SEED     1743765116
Info: USE HYDROGEN BONDS?    NO
Info: Using AMBER format force field!
Info: AMBER PARM FILE        mobley_6733657.prmtop
Info: COORDINATE PDB         mobley_6733657.pdb
Info: Exclusions will be read from PARM file!
Info: SCNB (VDW SCALING)     2
Info: USING ARITHMETIC MEAN TO COMBINE L-J SIGMA PARAMETERS
Info: BINARY COORDINATES     mobley_6733657_min.coor
Info: SUMMARY OF PARAMETERS:
Info: 9 BONDS
Info: 12 ANGLES
Info:   12 HARMONIC
Info:   0 COSINE-BASED
Info: 13 DIHEDRAL
Info: 0 IMPROPER
Info: 0 CROSSTERM
Info: 0 VDW
Info: 28 VDW_PAIRS
Info: 0 NBTHOLE_PAIRS
Info: STRUCTURE SUMMARY:
Info: 2919 ATOMS
Info: 2921 BONDS
Info: 54 ANGLES
Info: 144 DIHEDRALS
Info: 0 IMPROPERS
Info: 0 CROSSTERMS
Info: 3055 EXCLUSIONS
Info: 24 FIXED ATOMS
Info: 2901 RIGID BONDS
Info: 6 RIGID BONDS BETWEEN FIXED ATOMS
Info: 5790 DEGREES OF FREEDOM
Info: 983 HYDROGEN GROUPS
Info: 3 ATOMS IN LARGEST HYDROGEN GROUP
Info: 983 MIGRATION GROUPS
Info: 3 ATOMS IN LARGEST MIGRATION GROUP
Info: 18 HYDROGEN GROUPS WITH ALL ATOMS FIXED
Info: TOTAL MASS = 17795.2 amu
Info: TOTAL CHARGE = -2.09548e-08 e
Info: MASS DENSITY = 0.657595 g/cm^3
Info: ATOM DENSITY = 0.0649577 atoms/A^3
Info: ADDED 0 IMPLICIT EXCLUSIONS
Info: NONBONDED TABLE R-SQUARED SPACING: 0.0625
Info: NONBONDED TABLE SIZE: 705 POINTS
Info: REMOVING COM VELOCITY 0.152264 0.0688938 -0.0169336
TCL: Running for 100000 steps
ETITLE: TS BOND ANGLE DIHED IMPRP ELECT VDW BOUNDARY MISC KINETIC TOTAL TEMP POTENTIAL TOTAL3 TEMPAVG PRESSURE GPRESSURE VOLUME PRESSAVG GPRESSAVG
ENERGY: 0 0.0000 0.0000 0.0000 0.0000 -13402.9979 2385.2174 0.0000 0.0000 1694.2445 -9323.5360 294.5018 -11017.7805 -9323.2088 294.5018 580.0687 611.0942 44936.9329 580.0687 611.0942
ENERGY: 100000 0.0000 0.0000 0.0000 0.0000 -14004.1274 2452.1675 0.0000 0.0000 170.9403 -11381.0197 29.7137 -11551.9600 -11380.8021 30.8791 155.1376 200.3469 29178.2767 2.8029 2.8592
TCL: Running 100000 steps at 60 kelvin.
TCL: Setting parameter langevinTemp to 60
TCL: Running for 100000 steps
ETITLE: TS BOND ANGLE DIHED IMPRP ELECT VDW BOUNDARY MISC KINETIC TOTAL TEMP POTENTIAL TOTAL3 TEMPAVG PRESSURE GPRESSURE VOLUME PRESSAVG GPRESSAVG
ENERGY: 100000 0.0000 0.0000 0.0000 0.0000 -14004.1274 2452.1675 0.0000 0.0000 170.8556 -11381.1043 29.6990 -11551.9600 -11380.7570 29.6990 139.4810 199.9417 29178.2767 139.4810 199.9417
ENERGY: 200000 0.0000 0.0000 0.0000 0.0000 -14092.2182 2582.8004 0.0000 0.0000 342.0957 -11167.3220 59.4647 -11509.4178 -11166.7079 59.9874 1696.9130 1753.3335 28468.1406 3.3268 3.3285
TCL: Running 100000 steps at 90 kelvin.
TCL: Setting parameter langevinTemp to 90
TCL: Running for 100000 steps
ETITLE: TS BOND ANGLE DIHED IMPRP ELECT VDW BOUNDARY MISC KINETIC TOTAL TEMP POTENTIAL TOTAL3 TEMPAVG PRESSURE GPRESSURE VOLUME PRESSAVG GPRESSAVG
ENERGY: 200000 0.0000 0.0000 0.0000 0.0000 -14092.2182 2582.8004 0.0000 0.0000 341.9215 -11167.4963 59.4344 -11509.4178 -11166.8674 59.4344 1704.1697 1753.4420 28468.1406 1704.1697 1753.4420
ENERGY: 300000 0.0000 0.0000 0.0000 0.0000 -13689.7756 2257.9047 0.0000 0.0000 514.3079 -10917.5630 89.3995 -11431.8709 -10916.0102 89.9171 -661.3780 -628.2147 28686.6201 2.8197 2.8528
TCL: Running 100000 steps at 120 kelvin.
TCL: Setting parameter langevinTemp to 120
TCL: Running for 100000 steps
ETITLE: TS BOND ANGLE DIHED IMPRP ELECT VDW BOUNDARY MISC KINETIC TOTAL TEMP POTENTIAL TOTAL3 TEMPAVG PRESSURE GPRESSURE VOLUME PRESSAVG GPRESSAVG
ENERGY: 300000 0.0000 0.0000 0.0000 0.0000 -13689.7756 2257.9047 0.0000 0.0000 514.0434 -10917.8275 89.3535 -11431.8709 -10916.8054 89.3535 -682.3900 -628.2370 28686.6201 -682.3900 -628.2370
ENERGY: 400000 0.0000 0.0000 0.0000 0.0000 -13455.4587 2166.3125 0.0000 0.0000 684.4074 -10604.7388 118.9670 -11289.1462 -10602.8636 120.0449 -981.3735 -925.9395 29032.6881 4.8807 4.9546
TCL: Running 100000 steps at 150 kelvin.
TCL: Setting parameter langevinTemp to 150
TCL: Running for 100000 steps
ETITLE: TS BOND ANGLE DIHED IMPRP ELECT VDW BOUNDARY MISC KINETIC TOTAL TEMP POTENTIAL TOTAL3 TEMPAVG PRESSURE GPRESSURE VOLUME PRESSAVG GPRESSAVG
ENERGY: 400000 0.0000 0.0000 0.0000 0.0000 -13455.4587 2166.3125 0.0000 0.0000 684.0596 -10605.0866 118.9065 -11289.1462 -10603.8105 118.9065 -986.0061 -926.8153 29032.6881 -986.0061 -926.8153
ENERGY: 500000 0.0000 0.0000 0.0000 0.0000 -13258.5467 2159.9655 0.0000 0.0000 856.4656 -10242.1155 148.8750 -11098.5811 -10240.3167 149.8050 -307.2993 -281.2258 28769.5802 4.7244 4.6795
TCL: Running 100000 steps at 180 kelvin.
TCL: Setting parameter langevinTemp to 180
TCL: Running for 100000 steps
ETITLE: TS BOND ANGLE DIHED IMPRP ELECT VDW BOUNDARY MISC KINETIC TOTAL TEMP POTENTIAL TOTAL3 TEMPAVG PRESSURE GPRESSURE VOLUME PRESSAVG GPRESSAVG
ENERGY: 500000 0.0000 0.0000 0.0000 0.0000 -13258.5467 2159.9655 0.0000 0.0000 856.0153 -10242.5658 148.7967 -11098.5811 -10240.6958 148.7967 -322.4991 -280.7358 28769.5802 -322.4991 -280.7358
ENERGY: 600000 0.0000 0.0000 0.0000 0.0000 -12897.0609 2023.7127 0.0000 0.0000 1054.8241 -9818.5241 183.3546 -10873.3482 -9815.7730 180.1699 -702.8113 -617.7068 28979.7087 4.1471 4.1163
TCL: Running 100000 steps at 210 kelvin.
TCL: Setting parameter langevinTemp to 210
TCL: Running for 100000 steps
ETITLE: TS BOND ANGLE DIHED IMPRP ELECT VDW BOUNDARY MISC KINETIC TOTAL TEMP POTENTIAL TOTAL3 TEMPAVG PRESSURE GPRESSURE VOLUME PRESSAVG GPRESSAVG
ENERGY: 600000 0.0000 0.0000 0.0000 0.0000 -12897.0609 2023.7127 0.0000 0.0000 1054.3122 -9819.0360 183.2656 -10873.3482 -9816.9852 183.2656 -675.7331 -618.4802 28979.7087 -675.7331 -618.4802
ENERGY: 700000 0.0000 0.0000 0.0000 0.0000 -12293.4003 1944.0382 0.0000 0.0000 1212.3173 -9137.0449 210.7308 -10349.3621 -9135.6447 209.8795 800.5545 924.2190 28486.7581 5.0676 5.1910
TCL: Running 100000 steps at 240 kelvin.
TCL: Setting parameter langevinTemp to 240
TCL: Running for 100000 steps
ETITLE: TS BOND ANGLE DIHED IMPRP ELECT VDW BOUNDARY MISC KINETIC TOTAL TEMP POTENTIAL TOTAL3 TEMPAVG PRESSURE GPRESSURE VOLUME PRESSAVG GPRESSAVG
ENERGY: 700000 0.0000 0.0000 0.0000 0.0000 -12293.4003 1944.0382 0.0000 0.0000 1211.7050 -9137.6571 210.6244 -10349.3621 -9135.8434 210.6244 853.4336 923.2036 28486.7581 853.4336 923.2036
ENERGY: 800000 0.0000 0.0000 0.0000 0.0000 -11616.4573 1655.3045 0.0000 0.0000 1371.1531 -8589.9996 238.3405 -9961.1527 -8586.6342 240.1341 -331.2984 -225.7668 29071.4147 3.5891 3.7040
TCL: Running 100000 steps at 270 kelvin.
TCL: Setting parameter langevinTemp to 270
TCL: Running for 100000 steps
ETITLE: TS BOND ANGLE DIHED IMPRP ELECT VDW BOUNDARY MISC KINETIC TOTAL TEMP POTENTIAL TOTAL3 TEMPAVG PRESSURE GPRESSURE VOLUME PRESSAVG GPRESSAVG
ENERGY: 800000 0.0000 0.0000 0.0000 0.0000 -11616.4573 1655.3045 0.0000 0.0000 1370.4587 -8590.6940 238.2198 -9961.1527 -8588.3221 238.2198 -305.9572 -225.1060 29071.4147 -305.9572 -225.1060
ENERGY: 900000 0.0000 0.0000 0.0000 0.0000 -11159.3118 1644.8095 0.0000 0.0000 1551.0424 -7963.4599 269.6097 -9514.5023 -7961.9634 270.1740 1399.3062 1404.2509 28812.8363 2.7816 2.7777
TCL: Running 1000000 steps at 300 kelvin.
TCL: Setting parameter langevinTemp to 300
TCL: Running for 1000000 steps
ETITLE: TS BOND ANGLE DIHED IMPRP ELECT VDW BOUNDARY MISC KINETIC TOTAL TEMP POTENTIAL TOTAL3 TEMPAVG PRESSURE GPRESSURE VOLUME PRESSAVG GPRESSAVG
ENERGY: 900000 0.0000 0.0000 0.0000 0.0000 -11159.3118 1644.8095 0.0000 0.0000 1550.2845 -7964.2178 269.4779 -9514.5023 -7963.0364 269.4779 1332.3804 1404.4446 28812.8363 1332.3804 1404.4446
ENERGY: 1100000 0.0000 0.0000 0.0000 0.0000 -10579.1068 1424.0874 0.0000 0.0000 1723.6082 -7431.4113 299.6059 -9155.0195 -7431.4283 300.2709 72.5111 139.2338 30306.2325 2.1894 2.0999
ENERGY: 1300000 0.0000 0.0000 0.0000 0.0000 -10449.9596 1347.5815 0.0000 0.0000 1688.7977 -7413.5805 293.5550 -9102.3781 -7409.4880 299.8817 -514.2146 -433.8312 30511.4663 3.1482 3.3029
ENERGY: 1500000 0.0000 0.0000 0.0000 0.0000 -10549.2698 1434.3085 0.0000 0.0000 1726.1777 -7388.7836 300.0525 -9114.9613 -7387.8754 300.2681 609.9972 705.3079 29636.5290 3.5822 3.6436
ENERGY: 1700000 0.0000 0.0000 0.0000 0.0000 -10482.0971 1377.0742 0.0000 0.0000 1782.0745 -7322.9484 309.7688 -9105.0229 -7318.0341 299.6157 -262.0625 -106.0108 30363.6389 3.5202 3.4332
ENERGY: 1900000 0.0000 0.0000 0.0000 0.0000 -10580.0761 1416.2086 0.0000 0.0000 1705.6328 -7458.2347 296.4813 -9163.8675 -7454.5216 300.2117 -85.7783 0.1862 30335.7011 3.6183 3.4709
TCL: Exiting due to exit command.
