Info: SIMULATION PARAMETERS:
Info: TIMESTEP               2
Info: NUMBER OF STEPS        0
Info: STEPS PER CYCLE        10
Info: PERIODIC CELL BASIS 1  36.281 0 0
Info: PERIODIC CELL BASIS 2  0 35.411 0
Info: PERIODIC CELL BASIS 3  0 0 34.68
Info: PERIODIC CELL CENTER   0 0 0
Info: WRAPPING WATERS AROUND PERIODIC BOUNDARIES ON OUTPUT.
Info: WRAPPING ALL CLUSTERS AROUND PERIODIC BOUNDARIES ON OUTPUT.
Info: FIRST LDB TIMESTEP     50
Info: LAST LDB TIMESTEP     -1
Info: HOM BACKGROUND SCALING 1
Info: PME BACKGROUND SCALING 1
Info: MIN ATOMS PER PATCH    40
Info: EMPTY PATCH LOAD       40 ATOMS
Info: INITIAL TEMPERATURE    300
Info: CENTER OF MASS MOVING INITIALLY? NO
Info: DIELECTRIC             1
Info: EXCLUDE                SCALED ONE-FOUR
Info: 1-4 ELECTROSTATICS SCALED BY 0.833333
Info: MODIFIED 1-4 VDW PARAMETERS WILL BE USED
Info: DCD FILENAME           mobley_3999471_equil.dcd
Info: DCD FREQUENCY          100000
Info: DCD FIRST STEP         100000
Info: DCD FILE WILL CONTAIN UNIT CELL DATA
Info: XST FILENAME           mobley_3999471_equil.xst
Info: XST FREQUENCY          100000
Info: NO VELOCITY DCD OUTPUT
Info: NO FORCE DCD OUTPUT
Info: OUTPUT FILENAME        mobley_3999471_equil
Info: BINARY OUTPUT FILES WILL BE USED
Info: RESTART FILENAME       mobley_3999471_equil.restart
Info: RESTART FREQUENCY      100000
Info: BINARY RESTART FILES WILL BE USED
Info: CUTOFF                 9
Info: PAIRLIST DISTANCE      11
Info: PAIRLIST SHRINK RATE   0.01
Info: PAIRLIST GROW RATE     0.01
Info: PAIRLIST TRIGGER       0.3
Info: PAIRLISTS PER CYCLE    2
Info: PAIRLISTS ENABLED
Info: MARGIN                 8
Info: HYDROGEN GROUP CUTOFF  2.5
Info: PATCH DIMENSION        21.5
Info: ENERGY OUTPUT STEPS    100000
Info: ENERGY EVALUATION STEPS    100000
Info: OUTPUT ENERGY PRECISION 4
Info: CROSSTERM ENERGY INCLUDED IN DIHEDRAL
Info: TIMING OUTPUT STEPS    1000000
Info: PRESSURE OUTPUT STEPS  100000
Info: FIXED ATOMS ACTIVE
Info: LANGEVIN DYNAMICS ACTIVE
Info: LANGEVIN TEMPERATURE   30
Info: LANGEVIN USING BBK INTEGRATOR
Info: LANGEVIN DAMPING COEFFICIENT IS 1 INVERSE PS
Info: LANGEVIN DYNAMICS APPLIED TO HYDROGENS
Info: LANGEVIN PISTON PRESSURE CONTROL ACTIVE
Info:        TARGET PRESSURE IS 1.01325 BAR
Info:     OSCILLATION PERIOD IS 50 FS
Info:             DECAY TIME IS 25 FS
Info:     PISTON TEMPERATURE IS 300 K
Info:       PRESSURE CONTROL IS GROUP-BASED
Info:    INITIAL STRAIN RATE IS 0 0 0
Info:       CELL FLUCTUATION IS ISOTROPIC
Info: PARTICLE MESH EWALD (PME) ACTIVE
Info: PME TOLERANCE               1e-06
Info: PME EWALD COEFFICIENT       0.348832
Info: PME INTERPOLATION ORDER     4
Info: PME GRID DIMENSIONS         40 36 36
Info: PME MAXIMUM GRID SPACING    1
Info: FULL ELECTROSTATIC EVALUATION FREQUENCY      2
Info: USING VERLET I (r-RESPA) MTS SCHEME.
Info: C1 SPLITTING OF LONG RANGE ELECTROSTATICS
Info: PLACING ATOMS IN PATCHES BY HYDROGEN GROUPS
Info: RIGID BONDS TO HYDROGEN : ALL
Info:         ERROR TOLERANCE : 1e-08
Info:          MAX ITERATIONS : 100
Info: RIGID WATER USING SETTLE ALGORITHM
Info: RANDOM NUMBER SEED     1743674100
Info: USE HYDROGEN BONDS?    NO
Info: Using AMBER format force field!
Info: AMBER PARM FILE        mobley_3999471.prmtop
Info: COORDINATE PDB         mobley_3999471.pdb
Info: Exclusions will be read from PARM file!
Info: SCNB (VDW SCALING)     2
Info: USING ARITHMETIC MEAN TO COMBINE L-J SIGMA PARAMETERS
Info: BINARY COORDINATES     mobley_3999471_min.coor
Info: SUMMARY OF PARAMETERS:
Info: 6 BONDS
Info: 6 ANGLES
Info:   6 HARMONIC
Info:   0 COSINE-BASED
Info: 3 DIHEDRAL
Info: 0 IMPROPER
Info: 0 CROSSTERM
Info: 0 VDW
Info: 21 VDW_PAIRS
Info: 0 NBTHOLE_PAIRS
Info: STRUCTURE SUMMARY:
Info: 2957 ATOMS
Info: 2956 BONDS
Info: 12 ANGLES
Info: 15 DIHEDRALS
Info: 0 IMPROPERS
Info: 0 CROSSTERMS
Info: 2977 EXCLUSIONS
Info: 8 FIXED ATOMS
Info: 2953 RIGID BONDS
Info: 4 RIGID BONDS BETWEEN FIXED ATOMS
Info: 5898 DEGREES OF FREEDOM
Info: 987 HYDROGEN GROUPS
Info: 4 ATOMS IN LARGEST HYDROGEN GROUP
Info: 987 MIGRATION GROUPS
Info: 4 ATOMS IN LARGEST MIGRATION GROUP
Info: 4 HYDROGEN GROUPS WITH ALL ATOMS FIXED
Info: TOTAL MASS = 17808.7 amu
Info: TOTAL CHARGE = 0.000100009 e
Info: MASS DENSITY = 0.663735 g/cm^3
Info: ATOM DENSITY = 0.0663674 atoms/A^3
Info: ADDED 0 IMPLICIT EXCLUSIONS
Info: NONBONDED TABLE R-SQUARED SPACING: 0.0625
Info: NONBONDED TABLE SIZE: 705 POINTS
Info: REMOVING COM VELOCITY -0.0338284 -0.0990372 0.0264282
TCL: Running for 100000 steps
ETITLE: TS BOND ANGLE DIHED IMPRP ELECT VDW BOUNDARY MISC KINETIC TOTAL TEMP POTENTIAL TOTAL3 TEMPAVG PRESSURE GPRESSURE VOLUME PRESSAVG GPRESSAVG
ENERGY: 0 0.0000 0.0000 0.0000 0.0000 -13718.8951 2432.6375 0.0000 0.0000 1760.6978 -9525.5598 300.4488 -11286.2576 -9525.1909 300.4488 573.7079 606.6607 44555.0083 573.7079 606.6607
ENERGY: 100000 0.0000 0.0000 0.0000 0.0000 -14172.5530 2410.9894 0.0000 0.0000 171.8319 -11589.7317 29.3217 -11761.5636 -11589.3646 30.8981 -399.9581 -349.2214 29253.8751 4.2574 4.2469
TCL: Running 100000 steps at 60 kelvin.
TCL: Setting parameter langevinTemp to 60
TCL: Running for 100000 steps
ETITLE: TS BOND ANGLE DIHED IMPRP ELECT VDW BOUNDARY MISC KINETIC TOTAL TEMP POTENTIAL TOTAL3 TEMPAVG PRESSURE GPRESSURE VOLUME PRESSAVG GPRESSAVG
ENERGY: 100000 0.0000 0.0000 0.0000 0.0000 -14172.5530 2410.9894 0.0000 0.0000 171.7428 -11589.8209 29.3065 -11761.5636 -11589.4310 29.3065 -412.0051 -349.2230 29253.8751 -412.0051 -349.2230
ENERGY: 200000 0.0000 0.0000 0.0000 0.0000 -14138.5596 2421.6822 0.0000 0.0000 343.9261 -11372.9513 58.6882 -11716.8774 -11372.2354 59.9894 -142.5154 -93.5190 29149.0338 5.2304 5.2383
TCL: Running 100000 steps at 90 kelvin.
TCL: Setting parameter langevinTemp to 90
TCL: Running for 100000 steps
ETITLE: TS BOND ANGLE DIHED IMPRP ELECT VDW BOUNDARY MISC KINETIC TOTAL TEMP POTENTIAL TOTAL3 TEMPAVG PRESSURE GPRESSURE VOLUME PRESSAVG GPRESSAVG
ENERGY: 200000 0.0000 0.0000 0.0000 0.0000 -14138.5596 2421.6822 0.0000 0.0000 343.7465 -11373.1309 58.6575 -11716.8774 -11372.4254 58.6575 -148.4330 -93.6513 29149.0338 -148.4330 -93.6513
ENERGY: 300000 0.0000 0.0000 0.0000 0.0000 -14086.2183 2481.4073 0.0000 0.0000 532.4434 -11072.3677 90.8571 -11604.8110 -11070.9562 90.0103 922.7424 971.7050 28699.2451 4.2576 4.1978
TCL: Running 100000 steps at 120 kelvin.
TCL: Setting parameter langevinTemp to 120
TCL: Running for 100000 steps
ETITLE: TS BOND ANGLE DIHED IMPRP ELECT VDW BOUNDARY MISC KINETIC TOTAL TEMP POTENTIAL TOTAL3 TEMPAVG PRESSURE GPRESSURE VOLUME PRESSAVG GPRESSAVG
ENERGY: 300000 0.0000 0.0000 0.0000 0.0000 -14086.2183 2481.4073 0.0000 0.0000 532.1812 -11072.6299 90.8124 -11604.8110 -11071.6217 90.8124 934.1640 972.1535 28699.2451 934.1640 972.1535
ENERGY: 400000 0.0000 0.0000 0.0000 0.0000 -13977.0084 2447.0065 0.0000 0.0000 717.0674 -10812.9345 122.3617 -11530.0019 -10811.3230 119.8715 672.6040 772.8079 28914.3808 3.8053 3.7621
TCL: Running 100000 steps at 150 kelvin.
TCL: Setting parameter langevinTemp to 150
TCL: Running for 100000 steps
ETITLE: TS BOND ANGLE DIHED IMPRP ELECT VDW BOUNDARY MISC KINETIC TOTAL TEMP POTENTIAL TOTAL3 TEMPAVG PRESSURE GPRESSURE VOLUME PRESSAVG GPRESSAVG
ENERGY: 400000 0.0000 0.0000 0.0000 0.0000 -13977.0084 2447.0065 0.0000 0.0000 716.7078 -10813.2941 122.3004 -11530.0019 -10811.8098 122.3004 718.4600 772.5179 28914.3808 718.4600 772.5179
ENERGY: 500000 0.0000 0.0000 0.0000 0.0000 -13666.2421 2335.2678 0.0000 0.0000 892.3195 -10438.6548 152.2671 -11330.9743 -10437.0583 150.2941 436.0956 488.8410 29148.7486 3.1011 3.2567
TCL: Running 100000 steps at 180 kelvin.
TCL: Setting parameter langevinTemp to 180
TCL: Running for 100000 steps
ETITLE: TS BOND ANGLE DIHED IMPRP ELECT VDW BOUNDARY MISC KINETIC TOTAL TEMP POTENTIAL TOTAL3 TEMPAVG PRESSURE GPRESSURE VOLUME PRESSAVG GPRESSAVG
ENERGY: 500000 0.0000 0.0000 0.0000 0.0000 -13666.2421 2335.2678 0.0000 0.0000 891.8544 -10439.1199 152.1877 -11330.9743 -10437.6491 152.1877 434.3782 488.7314 29148.7486 434.3782 488.7314
ENERGY: 600000 0.0000 0.0000 0.0000 0.0000 -13099.8654 2048.2882 0.0000 0.0000 1045.6851 -10005.8921 178.4377 -11051.5772 -10002.6265 179.8372 -684.4568 -641.5460 29020.1505 3.7304 3.6919
TCL: Running 100000 steps at 210 kelvin.
TCL: Setting parameter langevinTemp to 210
TCL: Running for 100000 steps
ETITLE: TS BOND ANGLE DIHED IMPRP ELECT VDW BOUNDARY MISC KINETIC TOTAL TEMP POTENTIAL TOTAL3 TEMPAVG PRESSURE GPRESSURE VOLUME PRESSAVG GPRESSAVG
ENERGY: 600000 0.0000 0.0000 0.0000 0.0000 -13099.8654 2048.2882 0.0000 0.0000 1045.1741 -10006.4031 178.3505 -11051.5772 -10004.5065 178.3505 -699.0487 -640.9458 29020.1505 -699.0487 -640.9458
ENERGY: 700000 0.0000 0.0000 0.0000 0.0000 -12558.5941 2031.8384 0.0000 0.0000 1243.9797 -9282.7759 212.2750 -10526.7556 -9280.5675 210.1330 1280.2283 1306.6412 28757.1148 3.1461 2.9579
TCL: Running 100000 steps at 240 kelvin.
TCL: Setting parameter langevinTemp to 240
TCL: Running for 100000 steps
ETITLE: TS BOND ANGLE DIHED IMPRP ELECT VDW BOUNDARY MISC KINETIC TOTAL TEMP POTENTIAL TOTAL3 TEMPAVG PRESSURE GPRESSURE VOLUME PRESSAVG GPRESSAVG
ENERGY: 700000 0.0000 0.0000 0.0000 0.0000 -12558.5941 2031.8384 0.0000 0.0000 1243.3412 -9283.4145 212.1661 -10526.7556 -9281.7850 212.1661 1240.3731 1306.4563 28757.1148 1240.3731 1306.4563
ENERGY: 800000 0.0000 0.0000 0.0000 0.0000 -11750.2803 1700.9128 0.0000 0.0000 1433.4641 -8615.9034 244.6090 -10049.3675 -8611.2114 239.7655 -59.6891 55.5411 29159.1358 2.3184 2.3109
TCL: Running 100000 steps at 270 kelvin.
TCL: Setting parameter langevinTemp to 270
TCL: Running for 100000 steps
ETITLE: TS BOND ANGLE DIHED IMPRP ELECT VDW BOUNDARY MISC KINETIC TOTAL TEMP POTENTIAL TOTAL3 TEMPAVG PRESSURE GPRESSURE VOLUME PRESSAVG GPRESSAVG
ENERGY: 800000 0.0000 0.0000 0.0000 0.0000 -11750.2803 1700.9128 0.0000 0.0000 1432.7460 -8616.6215 244.4865 -10049.3675 -8614.0894 244.4865 -28.3554 55.1561 29159.1358 -28.3554 55.1561
ENERGY: 900000 0.0000 0.0000 0.0000 0.0000 -11164.6338 1469.3618 0.0000 0.0000 1577.6520 -8117.6200 269.2135 -9695.2720 -8115.5419 269.9558 -465.1914 -416.4200 29400.1057 4.5655 4.5932
TCL: Running 1000000 steps at 300 kelvin.
TCL: Setting parameter langevinTemp to 300
TCL: Running for 1000000 steps
ETITLE: TS BOND ANGLE DIHED IMPRP ELECT VDW BOUNDARY MISC KINETIC TOTAL TEMP POTENTIAL TOTAL3 TEMPAVG PRESSURE GPRESSURE VOLUME PRESSAVG GPRESSAVG
ENERGY: 900000 0.0000 0.0000 0.0000 0.0000 -11164.6338 1469.3618 0.0000 0.0000 1576.8714 -8118.4006 269.0803 -9695.2720 -8116.5548 269.0803 -497.5660 -416.1676 29400.1057 -497.5660 -416.1676
ENERGY: 1100000 0.0000 0.0000 0.0000 0.0000 -10724.3248 1412.9489 0.0000 0.0000 1779.4140 -7531.9619 303.6425 -9311.3759 -7530.7664 300.0758 -118.6301 -77.5969 30541.2197 4.0084 3.9118
ENERGY: 1300000 0.0000 0.0000 0.0000 0.0000 -10884.4353 1465.4270 0.0000 0.0000 1793.7288 -7625.2794 306.0852 -9419.0082 -7622.4421 299.6525 -326.5257 -182.6323 30641.5233 4.8084 4.8054
ENERGY: 1500000 0.0000 0.0000 0.0000 0.0000 -10758.5622 1467.3332 0.0000 0.0000 1742.1581 -7549.0709 297.2851 -9291.2291 -7543.8445 300.1206 -115.1475 -40.6189 31167.5712 3.0544 3.1375
ENERGY: 1700000 0.0000 0.0000 0.0000 0.0000 -10716.6920 1496.5584 0.0000 0.0000 1740.3702 -7479.7635 296.9800 -9220.1337 -7478.5417 300.3168 562.5990 654.2115 30354.2176 3.9225 3.8551
ENERGY: 1900000 0.0000 0.0000 0.0000 0.0000 -10808.2228 1448.8858 0.0000 0.0000 1780.7647 -7578.5724 303.8730 -9359.3370 -7570.8670 300.5846 -134.5673 -97.5960 30580.4713 3.4359 3.4309
TCL: Exiting due to exit command.
