Info: SIMULATION PARAMETERS:
Info: TIMESTEP               2
Info: NUMBER OF STEPS        0
Info: STEPS PER CYCLE        10
Info: PERIODIC CELL BASIS 1  36.005 0 0
Info: PERIODIC CELL BASIS 2  0 35.411 0
Info: PERIODIC CELL BASIS 3  0 0 34.68
Info: PERIODIC CELL CENTER   0 0 0
Info: WRAPPING WATERS AROUND PERIODIC BOUNDARIES ON OUTPUT.
Info: WRAPPING ALL CLUSTERS AROUND PERIODIC BOUNDARIES ON OUTPUT.
Info: FIRST LDB TIMESTEP     50
Info: LAST LDB TIMESTEP     -1
Info: HOM BACKGROUND SCALING 1
Info: PME BACKGROUND SCALING 1
Info: MIN ATOMS PER PATCH    40
Info: EMPTY PATCH LOAD       40 ATOMS
Info: INITIAL TEMPERATURE    300
Info: CENTER OF MASS MOVING INITIALLY? NO
Info: DIELECTRIC             1
Info: EXCLUDE                SCALED ONE-FOUR
Info: 1-4 ELECTROSTATICS SCALED BY 0.833333
Info: MODIFIED 1-4 VDW PARAMETERS WILL BE USED
Info: DCD FILENAME           mobley_8311321_equil.dcd
Info: DCD FREQUENCY          100000
Info: DCD FIRST STEP         100000
Info: DCD FILE WILL CONTAIN UNIT CELL DATA
Info: XST FILENAME           mobley_8311321_equil.xst
Info: XST FREQUENCY          100000
Info: NO VELOCITY DCD OUTPUT
Info: NO FORCE DCD OUTPUT
Info: OUTPUT FILENAME        mobley_8311321_equil
Info: BINARY OUTPUT FILES WILL BE USED
Info: RESTART FILENAME       mobley_8311321_equil.restart
Info: RESTART FREQUENCY      100000
Info: BINARY RESTART FILES WILL BE USED
Info: CUTOFF                 9
Info: PAIRLIST DISTANCE      11
Info: PAIRLIST SHRINK RATE   0.01
Info: PAIRLIST GROW RATE     0.01
Info: PAIRLIST TRIGGER       0.3
Info: PAIRLISTS PER CYCLE    2
Info: PAIRLISTS ENABLED
Info: MARGIN                 8
Info: HYDROGEN GROUP CUTOFF  2.5
Info: PATCH DIMENSION        21.5
Info: ENERGY OUTPUT STEPS    100000
Info: ENERGY EVALUATION STEPS    100000
Info: OUTPUT ENERGY PRECISION 4
Info: CROSSTERM ENERGY INCLUDED IN DIHEDRAL
Info: TIMING OUTPUT STEPS    1000000
Info: PRESSURE OUTPUT STEPS  100000
Info: FIXED ATOMS ACTIVE
Info: LANGEVIN DYNAMICS ACTIVE
Info: LANGEVIN TEMPERATURE   30
Info: LANGEVIN USING BBK INTEGRATOR
Info: LANGEVIN DAMPING COEFFICIENT IS 1 INVERSE PS
Info: LANGEVIN DYNAMICS APPLIED TO HYDROGENS
Info: LANGEVIN PISTON PRESSURE CONTROL ACTIVE
Info:        TARGET PRESSURE IS 1.01325 BAR
Info:     OSCILLATION PERIOD IS 50 FS
Info:             DECAY TIME IS 25 FS
Info:     PISTON TEMPERATURE IS 300 K
Info:       PRESSURE CONTROL IS GROUP-BASED
Info:    INITIAL STRAIN RATE IS 0 0 0
Info:       CELL FLUCTUATION IS ISOTROPIC
Info: PARTICLE MESH EWALD (PME) ACTIVE
Info: PME TOLERANCE               1e-06
Info: PME EWALD COEFFICIENT       0.348832
Info: PME INTERPOLATION ORDER     4
Info: PME GRID DIMENSIONS         40 36 36
Info: PME MAXIMUM GRID SPACING    1
Info: FULL ELECTROSTATIC EVALUATION FREQUENCY      2
Info: USING VERLET I (r-RESPA) MTS SCHEME.
Info: C1 SPLITTING OF LONG RANGE ELECTROSTATICS
Info: PLACING ATOMS IN PATCHES BY HYDROGEN GROUPS
Info: RIGID BONDS TO HYDROGEN : ALL
Info:         ERROR TOLERANCE : 1e-08
Info:          MAX ITERATIONS : 100
Info: RIGID WATER USING SETTLE ALGORITHM
Info: RANDOM NUMBER SEED     1743679498
Info: USE HYDROGEN BONDS?    NO
Info: Using AMBER format force field!
Info: AMBER PARM FILE        mobley_8311321.prmtop
Info: COORDINATE PDB         mobley_8311321.pdb
Info: Exclusions will be read from PARM file!
Info: SCNB (VDW SCALING)     2
Info: USING ARITHMETIC MEAN TO COMBINE L-J SIGMA PARAMETERS
Info: BINARY COORDINATES     mobley_8311321_min.coor
Info: SUMMARY OF PARAMETERS:
Info: 5 BONDS
Info: 4 ANGLES
Info:   4 HARMONIC
Info:   0 COSINE-BASED
Info: 0 DIHEDRAL
Info: 0 IMPROPER
Info: 0 CROSSTERM
Info: 0 VDW
Info: 21 VDW_PAIRS
Info: 0 NBTHOLE_PAIRS
Info: STRUCTURE SUMMARY:
Info: 2936 ATOMS
Info: 2935 BONDS
Info: 6 ANGLES
Info: 0 DIHEDRALS
Info: 0 IMPROPERS
Info: 0 CROSSTERMS
Info: 2941 EXCLUSIONS
Info: 5 FIXED ATOMS
Info: 2932 RIGID BONDS
Info: 1 RIGID BONDS BETWEEN FIXED ATOMS
Info: 5862 DEGREES OF FREEDOM
Info: 981 HYDROGEN GROUPS
Info: 3 ATOMS IN LARGEST HYDROGEN GROUP
Info: 981 MIGRATION GROUPS
Info: 3 ATOMS IN LARGEST MIGRATION GROUP
Info: 4 HYDROGEN GROUPS WITH ALL ATOMS FIXED
Info: TOTAL MASS = 17688.1 amu
Info: TOTAL CHARGE = -9.99868e-05 e
Info: MASS DENSITY = 0.664294 g/cm^3
Info: ATOM DENSITY = 0.0664012 atoms/A^3
Info: ADDED 0 IMPLICIT EXCLUSIONS
Info: NONBONDED TABLE R-SQUARED SPACING: 0.0625
Info: NONBONDED TABLE SIZE: 705 POINTS
Info: REMOVING COM VELOCITY -0.0201582 0.185612 -0.0650164
TCL: Running for 100000 steps
ETITLE: TS BOND ANGLE DIHED IMPRP ELECT VDW BOUNDARY MISC KINETIC TOTAL TEMP POTENTIAL TOTAL3 TEMPAVG PRESSURE GPRESSURE VOLUME PRESSAVG GPRESSAVG
ENERGY: 0 0.0000 0.0000 0.0000 0.0000 -13668.4209 2415.5147 0.0000 0.0000 1746.2353 -9506.6710 299.8108 -11252.9062 -9506.3470 299.8108 544.3129 575.4896 44216.0655 544.3129 575.4896
ENERGY: 100000 0.0000 0.0000 0.0000 0.0000 -14004.4749 2261.0800 0.0000 0.0000 175.2290 -11568.1660 30.0850 -11743.3950 -11567.6541 30.9555 -1773.6702 -1723.0157 28842.0159 3.4613 3.3705
TCL: Running 100000 steps at 60 kelvin.
TCL: Setting parameter langevinTemp to 60
TCL: Running for 100000 steps
ETITLE: TS BOND ANGLE DIHED IMPRP ELECT VDW BOUNDARY MISC KINETIC TOTAL TEMP POTENTIAL TOTAL3 TEMPAVG PRESSURE GPRESSURE VOLUME PRESSAVG GPRESSAVG
ENERGY: 100000 0.0000 0.0000 0.0000 0.0000 -14004.4749 2261.0800 0.0000 0.0000 175.1441 -11568.2509 30.0705 -11743.3950 -11567.7472 30.0705 -1774.6959 -1723.0390 28842.0159 -1774.6959 -1723.0390
ENERGY: 200000 0.0000 0.0000 0.0000 0.0000 -14131.5235 2475.7799 0.0000 0.0000 349.2220 -11306.5215 59.9579 -11655.7436 -11305.9563 59.9957 415.9178 491.2698 28422.0023 5.8272 5.8789
TCL: Running 100000 steps at 90 kelvin.
TCL: Setting parameter langevinTemp to 90
TCL: Running for 100000 steps
ETITLE: TS BOND ANGLE DIHED IMPRP ELECT VDW BOUNDARY MISC KINETIC TOTAL TEMP POTENTIAL TOTAL3 TEMPAVG PRESSURE GPRESSURE VOLUME PRESSAVG GPRESSAVG
ENERGY: 200000 0.0000 0.0000 0.0000 0.0000 -14131.5235 2475.7799 0.0000 0.0000 349.0509 -11306.6926 59.9285 -11655.7436 -11305.9265 59.9285 439.3144 491.0200 28422.0023 439.3144 491.0200
ENERGY: 300000 0.0000 0.0000 0.0000 0.0000 -13977.7339 2436.9197 0.0000 0.0000 523.8737 -11016.9405 89.9438 -11540.8142 -11015.5298 89.9239 606.4998 641.0324 28427.6375 3.3482 3.3394
TCL: Running 100000 steps at 120 kelvin.
TCL: Setting parameter langevinTemp to 120
TCL: Running for 100000 steps
ETITLE: TS BOND ANGLE DIHED IMPRP ELECT VDW BOUNDARY MISC KINETIC TOTAL TEMP POTENTIAL TOTAL3 TEMPAVG PRESSURE GPRESSURE VOLUME PRESSAVG GPRESSAVG
ENERGY: 300000 0.0000 0.0000 0.0000 0.0000 -13977.7339 2436.9197 0.0000 0.0000 523.6123 -11017.2020 89.8989 -11540.8142 -11016.3567 89.8989 593.5175 641.1894 28427.6375 593.5175 641.1894
ENERGY: 400000 0.0000 0.0000 0.0000 0.0000 -13686.7283 2233.5443 0.0000 0.0000 707.0371 -10746.1470 121.3911 -11453.1841 -10744.3520 120.0061 -556.6195 -466.4866 28416.6697 4.5073 4.5026
TCL: Running 100000 steps at 150 kelvin.
TCL: Setting parameter langevinTemp to 150
TCL: Running for 100000 steps
ETITLE: TS BOND ANGLE DIHED IMPRP ELECT VDW BOUNDARY MISC KINETIC TOTAL TEMP POTENTIAL TOTAL3 TEMPAVG PRESSURE GPRESSURE VOLUME PRESSAVG GPRESSAVG
ENERGY: 400000 0.0000 0.0000 0.0000 0.0000 -13686.7283 2233.5443 0.0000 0.0000 706.7044 -10746.4797 121.3340 -11453.1841 -10745.0552 121.3340 -514.7564 -465.8978 28416.6697 -514.7564 -465.8978
ENERGY: 500000 0.0000 0.0000 0.0000 0.0000 -13448.0659 2152.7827 0.0000 0.0000 884.3743 -10410.9088 151.8381 -11295.2832 -10408.2851 150.0613 -905.0862 -888.4118 28880.8239 3.1363 3.1282
TCL: Running 100000 steps at 180 kelvin.
TCL: Setting parameter langevinTemp to 180
TCL: Running for 100000 steps
ETITLE: TS BOND ANGLE DIHED IMPRP ELECT VDW BOUNDARY MISC KINETIC TOTAL TEMP POTENTIAL TOTAL3 TEMPAVG PRESSURE GPRESSURE VOLUME PRESSAVG GPRESSAVG
ENERGY: 500000 0.0000 0.0000 0.0000 0.0000 -13448.0659 2152.7827 0.0000 0.0000 883.9242 -10411.3590 151.7608 -11295.2832 -10409.5309 151.7608 -926.4441 -888.8693 28880.8239 -926.4441 -888.8693
ENERGY: 600000 0.0000 0.0000 0.0000 0.0000 -13101.9952 2079.9762 0.0000 0.0000 1027.1436 -9994.8754 176.3501 -11022.0190 -9991.8433 179.9198 -246.2934 -199.7363 28497.4119 3.6917 3.6363
TCL: Running 100000 steps at 210 kelvin.
TCL: Setting parameter langevinTemp to 210
TCL: Running for 100000 steps
ETITLE: TS BOND ANGLE DIHED IMPRP ELECT VDW BOUNDARY MISC KINETIC TOTAL TEMP POTENTIAL TOTAL3 TEMPAVG PRESSURE GPRESSURE VOLUME PRESSAVG GPRESSAVG
ENERGY: 600000 0.0000 0.0000 0.0000 0.0000 -13101.9952 2079.9762 0.0000 0.0000 1026.6304 -9995.3886 176.2620 -11022.0190 -9993.4300 176.2620 -265.5940 -199.1150 28497.4119 -265.5940 -199.1150
ENERGY: 700000 0.0000 0.0000 0.0000 0.0000 -12460.8434 1938.4095 0.0000 0.0000 1229.8448 -9292.5891 211.1518 -10522.4339 -9289.1244 209.9119 309.9566 416.4327 28656.5433 3.1451 3.3264
TCL: Running 100000 steps at 240 kelvin.
TCL: Setting parameter langevinTemp to 240
TCL: Running for 100000 steps
ETITLE: TS BOND ANGLE DIHED IMPRP ELECT VDW BOUNDARY MISC KINETIC TOTAL TEMP POTENTIAL TOTAL3 TEMPAVG PRESSURE GPRESSURE VOLUME PRESSAVG GPRESSAVG
ENERGY: 700000 0.0000 0.0000 0.0000 0.0000 -12460.8434 1938.4095 0.0000 0.0000 1229.2429 -9293.1910 211.0485 -10522.4339 -9291.4210 211.0485 336.9916 417.5832 28656.5433 336.9916 417.5832
ENERGY: 800000 0.0000 0.0000 0.0000 0.0000 -11837.6911 1728.6667 0.0000 0.0000 1349.3418 -8759.6825 231.6683 -10109.0243 -8756.2928 239.7364 77.1109 141.3560 28798.1548 4.1123 4.1740
TCL: Running 100000 steps at 270 kelvin.
TCL: Setting parameter langevinTemp to 270
TCL: Running for 100000 steps
ETITLE: TS BOND ANGLE DIHED IMPRP ELECT VDW BOUNDARY MISC KINETIC TOTAL TEMP POTENTIAL TOTAL3 TEMPAVG PRESSURE GPRESSURE VOLUME PRESSAVG GPRESSAVG
ENERGY: 800000 0.0000 0.0000 0.0000 0.0000 -11837.6911 1728.6667 0.0000 0.0000 1348.6362 -8760.3881 231.5471 -10109.0243 -8758.2660 231.5471 44.3309 141.5445 28798.1548 44.3309 141.5445
ENERGY: 900000 0.0000 0.0000 0.0000 0.0000 -11215.0144 1576.5119 0.0000 0.0000 1518.0753 -8120.4273 260.6381 -9638.5026 -8117.5978 269.6155 -15.3485 119.9857 29483.1394 4.1409 4.0434
TCL: Running 1000000 steps at 300 kelvin.
TCL: Setting parameter langevinTemp to 300
TCL: Running for 1000000 steps
ETITLE: TS BOND ANGLE DIHED IMPRP ELECT VDW BOUNDARY MISC KINETIC TOTAL TEMP POTENTIAL TOTAL3 TEMPAVG PRESSURE GPRESSURE VOLUME PRESSAVG GPRESSAVG
ENERGY: 900000 0.0000 0.0000 0.0000 0.0000 -11215.0144 1576.5119 0.0000 0.0000 1517.2649 -8121.2377 260.4989 -9638.5026 -8119.0002 260.4989 16.6959 118.4953 29483.1394 16.6959 118.4953
ENERGY: 1100000 0.0000 0.0000 0.0000 0.0000 -10848.7094 1611.7135 0.0000 0.0000 1683.3916 -7553.6043 289.0212 -9236.9959 -7551.6630 300.4608 1806.1540 1884.2261 29481.9378 2.6141 2.6278
ENERGY: 1300000 0.0000 0.0000 0.0000 0.0000 -10525.0627 1338.1930 0.0000 0.0000 1751.3347 -7435.5350 300.6864 -9186.8697 -7432.4540 300.4628 -629.9291 -511.3843 30370.4511 3.6508 3.6262
ENERGY: 1500000 0.0000 0.0000 0.0000 0.0000 -10519.4684 1393.8702 0.0000 0.0000 1769.6185 -7355.9797 303.8255 -9125.5983 -7350.1581 299.8197 64.7130 127.4809 30280.2583 2.8385 2.9197
ENERGY: 1700000 0.0000 0.0000 0.0000 0.0000 -10776.3528 1405.0665 0.0000 0.0000 1741.2100 -7630.0763 298.9480 -9371.2863 -7626.0529 299.5809 -680.6126 -593.3567 30434.9833 2.9040 2.8804
ENERGY: 1900000 0.0000 0.0000 0.0000 0.0000 -10675.6013 1418.4464 0.0000 0.0000 1758.4954 -7498.6595 301.9158 -9257.1549 -7496.2427 301.1855 2.0391 108.1455 30099.5730 4.1800 4.2242
TCL: Exiting due to exit command.
