Info: SIMULATION PARAMETERS:
Info: TIMESTEP               2
Info: NUMBER OF STEPS        0
Info: STEPS PER CYCLE        10
Info: PERIODIC CELL BASIS 1  36.281 0 0
Info: PERIODIC CELL BASIS 2  0 34.26 0
Info: PERIODIC CELL BASIS 3  0 0 35.723
Info: PERIODIC CELL CENTER   0 0 0
Info: WRAPPING WATERS AROUND PERIODIC BOUNDARIES ON OUTPUT.
Info: WRAPPING ALL CLUSTERS AROUND PERIODIC BOUNDARIES ON OUTPUT.
Info: FIRST LDB TIMESTEP     50
Info: LAST LDB TIMESTEP     -1
Info: HOM BACKGROUND SCALING 1
Info: PME BACKGROUND SCALING 1
Info: MIN ATOMS PER PATCH    40
Info: EMPTY PATCH LOAD       40 ATOMS
Info: INITIAL TEMPERATURE    300
Info: CENTER OF MASS MOVING INITIALLY? NO
Info: DIELECTRIC             1
Info: EXCLUDE                SCALED ONE-FOUR
Info: 1-4 ELECTROSTATICS SCALED BY 0.833333
Info: MODIFIED 1-4 VDW PARAMETERS WILL BE USED
Info: DCD FILENAME           mobley_9979854_equil.dcd
Info: DCD FREQUENCY          100000
Info: DCD FIRST STEP         100000
Info: DCD FILE WILL CONTAIN UNIT CELL DATA
Info: XST FILENAME           mobley_9979854_equil.xst
Info: XST FREQUENCY          100000
Info: NO VELOCITY DCD OUTPUT
Info: NO FORCE DCD OUTPUT
Info: OUTPUT FILENAME        mobley_9979854_equil
Info: BINARY OUTPUT FILES WILL BE USED
Info: RESTART FILENAME       mobley_9979854_equil.restart
Info: RESTART FREQUENCY      100000
Info: BINARY RESTART FILES WILL BE USED
Info: CUTOFF                 9
Info: PAIRLIST DISTANCE      11
Info: PAIRLIST SHRINK RATE   0.01
Info: PAIRLIST GROW RATE     0.01
Info: PAIRLIST TRIGGER       0.3
Info: PAIRLISTS PER CYCLE    2
Info: PAIRLISTS ENABLED
Info: MARGIN                 8
Info: HYDROGEN GROUP CUTOFF  2.5
Info: PATCH DIMENSION        21.5
Info: ENERGY OUTPUT STEPS    100000
Info: ENERGY EVALUATION STEPS    100000
Info: OUTPUT ENERGY PRECISION 4
Info: CROSSTERM ENERGY INCLUDED IN DIHEDRAL
Info: TIMING OUTPUT STEPS    1000000
Info: PRESSURE OUTPUT STEPS  100000
Info: FIXED ATOMS ACTIVE
Info: LANGEVIN DYNAMICS ACTIVE
Info: LANGEVIN TEMPERATURE   30
Info: LANGEVIN USING BBK INTEGRATOR
Info: LANGEVIN DAMPING COEFFICIENT IS 1 INVERSE PS
Info: LANGEVIN DYNAMICS APPLIED TO HYDROGENS
Info: LANGEVIN PISTON PRESSURE CONTROL ACTIVE
Info:        TARGET PRESSURE IS 1.01325 BAR
Info:     OSCILLATION PERIOD IS 50 FS
Info:             DECAY TIME IS 25 FS
Info:     PISTON TEMPERATURE IS 300 K
Info:       PRESSURE CONTROL IS GROUP-BASED
Info:    INITIAL STRAIN RATE IS 0 0 0
Info:       CELL FLUCTUATION IS ISOTROPIC
Info: PARTICLE MESH EWALD (PME) ACTIVE
Info: PME TOLERANCE               1e-06
Info: PME EWALD COEFFICIENT       0.348832
Info: PME INTERPOLATION ORDER     4
Info: PME GRID DIMENSIONS         40 36 36
Info: PME MAXIMUM GRID SPACING    1
Info: FULL ELECTROSTATIC EVALUATION FREQUENCY      2
Info: USING VERLET I (r-RESPA) MTS SCHEME.
Info: C1 SPLITTING OF LONG RANGE ELECTROSTATICS
Info: PLACING ATOMS IN PATCHES BY HYDROGEN GROUPS
Info: RIGID BONDS TO HYDROGEN : ALL
Info:         ERROR TOLERANCE : 1e-08
Info:          MAX ITERATIONS : 100
Info: RIGID WATER USING SETTLE ALGORITHM
Info: RANDOM NUMBER SEED     1743728790
Info: USE HYDROGEN BONDS?    NO
Info: Using AMBER format force field!
Info: AMBER PARM FILE        mobley_9979854.prmtop
Info: COORDINATE PDB         mobley_9979854.pdb
Info: Exclusions will be read from PARM file!
Info: SCNB (VDW SCALING)     2
Info: USING ARITHMETIC MEAN TO COMBINE L-J SIGMA PARAMETERS
Info: BINARY COORDINATES     mobley_9979854_min.coor
Info: SUMMARY OF PARAMETERS:
Info: 8 BONDS
Info: 9 ANGLES
Info: 6 DIHEDRAL
Info: 0 IMPROPER
Info: 0 CROSSTERM
Info: 0 VDW
Info: 28 VDW_PAIRS
Info: 0 NBTHOLE_PAIRS
Info: STRUCTURE SUMMARY:
Info: 2928 ATOMS
Info: 2927 BONDS
Info: 19 ANGLES
Info: 29 DIHEDRALS
Info: 0 IMPROPERS
Info: 0 CROSSTERMS
Info: 2967 EXCLUSIONS
Info: 12 FIXED ATOMS
Info: 2921 RIGID BONDS
Info: 5 RIGID BONDS BETWEEN FIXED ATOMS
Info: 5832 DEGREES OF FREEDOM
Info: 979 HYDROGEN GROUPS
Info: 4 ATOMS IN LARGEST HYDROGEN GROUP
Info: 979 MIGRATION GROUPS
Info: 4 ATOMS IN LARGEST MIGRATION GROUP
Info: 7 HYDROGEN GROUPS WITH ALL ATOMS FIXED
Info: TOTAL MASS = 17625.6 amu
Info: TOTAL CHARGE = 0.000199988 e
Info: MASS DENSITY = 0.659157 g/cm^3
Info: ATOM DENSITY = 0.0659412 atoms/A^3
Info: ADDED 0 IMPLICIT EXCLUSIONS
Info: NONBONDED TABLE R-SQUARED SPACING: 0.0625
Info: NONBONDED TABLE SIZE: 705 POINTS
Info: REMOVING COM VELOCITY -0.279756 0.132573 -0.193504
TCL: Running for 100000 steps
ETITLE: TS BOND ANGLE DIHED IMPRP ELECT VDW BOUNDARY MISC KINETIC TOTAL TEMP POTENTIAL TOTAL3 TEMPAVG PRESSURE GPRESSURE VOLUME PRESSAVG GPRESSAVG
ENERGY: 0 0.0000 0.0000 0.0000 0.0000 -13649.9062 2386.9711 0.0000 0.0000 1767.7321 -9495.2030 305.0628 -11262.9351 -9494.8496 305.0628 394.6668 422.4033 44403.2267 394.6668 422.4033
ENERGY: 100000 0.0000 0.0000 0.0000 0.0000 -14153.2125 2421.6316 0.0000 0.0000 172.4532 -11559.1277 29.7608 -11731.5808 -11558.5407 30.8826 -398.3667 -335.7426 29023.7645 5.5008 5.4792
TCL: Running 100000 steps at 60 kelvin.
TCL: Setting parameter langevinTemp to 60
TCL: Running for 100000 steps
ETITLE: TS BOND ANGLE DIHED IMPRP ELECT VDW BOUNDARY MISC KINETIC TOTAL TEMP POTENTIAL TOTAL3 TEMPAVG PRESSURE GPRESSURE VOLUME PRESSAVG GPRESSAVG
ENERGY: 100000 0.0000 0.0000 0.0000 0.0000 -14153.2125 2421.6316 0.0000 0.0000 172.3633 -11559.2175 29.7453 -11731.5808 -11558.7820 29.7453 -386.8806 -335.6392 29023.7645 -386.8806 -335.6392
ENERGY: 200000 0.0000 0.0000 0.0000 0.0000 -14090.7929 2431.1593 0.0000 0.0000 351.8874 -11307.7461 60.7263 -11659.6335 -11306.8514 59.8649 121.2261 144.1287 28804.0740 4.5671 4.5360
TCL: Running 100000 steps at 90 kelvin.
TCL: Setting parameter langevinTemp to 90
TCL: Running for 100000 steps
ETITLE: TS BOND ANGLE DIHED IMPRP ELECT VDW BOUNDARY MISC KINETIC TOTAL TEMP POTENTIAL TOTAL3 TEMPAVG PRESSURE GPRESSURE VOLUME PRESSAVG GPRESSAVG
ENERGY: 200000 0.0000 0.0000 0.0000 0.0000 -14090.7929 2431.1593 0.0000 0.0000 351.7205 -11307.9130 60.6975 -11659.6335 -11307.1930 60.6975 91.5480 143.9669 28804.0740 91.5480 143.9669
ENERGY: 300000 0.0000 0.0000 0.0000 0.0000 -14025.8800 2444.7656 0.0000 0.0000 530.5254 -11050.5891 91.5544 -11581.1144 -11049.3498 89.9660 652.9879 701.8790 28388.6446 4.0871 4.1728
TCL: Running 100000 steps at 120 kelvin.
TCL: Setting parameter langevinTemp to 120
TCL: Running for 100000 steps
ETITLE: TS BOND ANGLE DIHED IMPRP ELECT VDW BOUNDARY MISC KINETIC TOTAL TEMP POTENTIAL TOTAL3 TEMPAVG PRESSURE GPRESSURE VOLUME PRESSAVG GPRESSAVG
ENERGY: 300000 0.0000 0.0000 0.0000 0.0000 -14025.8800 2444.7656 0.0000 0.0000 530.2494 -11050.8650 91.5067 -11581.1144 -11049.9829 91.5067 650.5615 701.9219 28388.6446 650.5615 701.9219
ENERGY: 400000 0.0000 0.0000 0.0000 0.0000 -13705.6573 2269.4075 0.0000 0.0000 736.2310 -10700.0188 127.0536 -11436.2498 -10697.6472 120.2624 -256.8458 -218.1383 28688.2345 3.2687 3.2670
TCL: Running 100000 steps at 150 kelvin.
TCL: Setting parameter langevinTemp to 150
TCL: Running for 100000 steps
ETITLE: TS BOND ANGLE DIHED IMPRP ELECT VDW BOUNDARY MISC KINETIC TOTAL TEMP POTENTIAL TOTAL3 TEMPAVG PRESSURE GPRESSURE VOLUME PRESSAVG GPRESSAVG
ENERGY: 400000 0.0000 0.0000 0.0000 0.0000 -13705.6573 2269.4075 0.0000 0.0000 735.8785 -10700.3713 126.9928 -11436.2498 -10698.8334 126.9928 -289.5595 -218.4740 28688.2345 -289.5595 -218.4740
ENERGY: 500000 0.0000 0.0000 0.0000 0.0000 -13595.4565 2300.2061 0.0000 0.0000 865.0811 -10430.1693 149.2896 -11295.2504 -10426.8001 149.9621 269.2668 346.5231 28809.9672 4.4766 4.3930
TCL: Running 100000 steps at 180 kelvin.
TCL: Setting parameter langevinTemp to 180
TCL: Running for 100000 steps
ETITLE: TS BOND ANGLE DIHED IMPRP ELECT VDW BOUNDARY MISC KINETIC TOTAL TEMP POTENTIAL TOTAL3 TEMPAVG PRESSURE GPRESSURE VOLUME PRESSAVG GPRESSAVG
ENERGY: 500000 0.0000 0.0000 0.0000 0.0000 -13595.4565 2300.2061 0.0000 0.0000 864.6330 -10430.6174 149.2123 -11295.2504 -10429.1874 149.2123 286.9614 348.1290 28809.9672 286.9614 348.1290
ENERGY: 600000 0.0000 0.0000 0.0000 0.0000 -13157.9156 2146.5100 0.0000 0.0000 1048.8588 -9962.5467 181.0047 -11011.4055 -9960.6972 179.2975 59.8945 165.1154 28700.6971 3.2131 3.2277
TCL: Running 100000 steps at 210 kelvin.
TCL: Setting parameter langevinTemp to 210
TCL: Running for 100000 steps
ETITLE: TS BOND ANGLE DIHED IMPRP ELECT VDW BOUNDARY MISC KINETIC TOTAL TEMP POTENTIAL TOTAL3 TEMPAVG PRESSURE GPRESSURE VOLUME PRESSAVG GPRESSAVG
ENERGY: 600000 0.0000 0.0000 0.0000 0.0000 -13157.9156 2146.5100 0.0000 0.0000 1048.3507 -9963.0548 180.9170 -11011.4055 -9960.8411 180.9170 117.9777 164.2555 28700.6971 117.9777 164.2555
ENERGY: 700000 0.0000 0.0000 0.0000 0.0000 -12457.0097 1902.5282 0.0000 0.0000 1200.3765 -9354.1050 207.1526 -10554.4815 -9350.3505 209.8551 158.0120 221.3190 28369.5420 3.5952 3.5433
TCL: Running 100000 steps at 240 kelvin.
TCL: Setting parameter langevinTemp to 240
TCL: Running for 100000 steps
ETITLE: TS BOND ANGLE DIHED IMPRP ELECT VDW BOUNDARY MISC KINETIC TOTAL TEMP POTENTIAL TOTAL3 TEMPAVG PRESSURE GPRESSURE VOLUME PRESSAVG GPRESSAVG
ENERGY: 700000 0.0000 0.0000 0.0000 0.0000 -12457.0097 1902.5282 0.0000 0.0000 1199.7928 -9354.6887 207.0519 -10554.4815 -9352.7832 207.0519 148.4024 221.0499 28369.5420 148.4024 221.0499
ENERGY: 800000 0.0000 0.0000 0.0000 0.0000 -11758.1098 1693.3993 0.0000 0.0000 1427.2455 -8637.4649 246.3040 -10064.7104 -8633.0873 239.7643 -30.8485 102.3666 28863.3302 4.1724 4.0436
TCL: Running 100000 steps at 270 kelvin.
TCL: Setting parameter langevinTemp to 270
TCL: Running for 100000 steps
ETITLE: TS BOND ANGLE DIHED IMPRP ELECT VDW BOUNDARY MISC KINETIC TOTAL TEMP POTENTIAL TOTAL3 TEMPAVG PRESSURE GPRESSURE VOLUME PRESSAVG GPRESSAVG
ENERGY: 800000 0.0000 0.0000 0.0000 0.0000 -11758.1098 1693.3993 0.0000 0.0000 1426.5555 -8638.1549 246.1850 -10064.7104 -8635.6187 246.1850 24.9019 103.7549 28863.3302 24.9019 103.7549
ENERGY: 900000 0.0000 0.0000 0.0000 0.0000 -11187.5954 1521.8027 0.0000 0.0000 1534.8938 -8130.8990 264.8812 -9665.7928 -8125.8882 269.4801 -501.5370 -365.2966 29581.6638 4.8065 4.6244
TCL: Running 1000000 steps at 300 kelvin.
TCL: Setting parameter langevinTemp to 300
TCL: Running for 1000000 steps
ETITLE: TS BOND ANGLE DIHED IMPRP ELECT VDW BOUNDARY MISC KINETIC TOTAL TEMP POTENTIAL TOTAL3 TEMPAVG PRESSURE GPRESSURE VOLUME PRESSAVG GPRESSAVG
ENERGY: 900000 0.0000 0.0000 0.0000 0.0000 -11187.5954 1521.8027 0.0000 0.0000 1534.1292 -8131.6635 264.7493 -9665.7928 -8129.1691 264.7493 -446.2571 -361.2421 29581.6638 -446.2571 -361.2421
ENERGY: 1100000 0.0000 0.0000 0.0000 0.0000 -10566.2162 1347.2231 0.0000 0.0000 1721.5715 -7497.4216 297.0968 -9218.9931 -7491.6416 300.1138 -426.5926 -315.8570 29813.4317 3.5085 3.5145
ENERGY: 1300000 0.0000 0.0000 0.0000 0.0000 -10638.3825 1351.7068 0.0000 0.0000 1720.6621 -7566.0136 296.9398 -9286.6757 -7561.3050 300.0736 -638.6224 -512.4100 30099.6789 2.6629 2.5905
ENERGY: 1500000 0.0000 0.0000 0.0000 0.0000 -10785.0969 1421.0416 0.0000 0.0000 1717.6856 -7646.3697 296.4262 -9364.0553 -7641.2877 299.5736 -373.1323 -197.8352 30031.9705 3.1649 3.0793
ENERGY: 1700000 0.0000 0.0000 0.0000 0.0000 -10652.4636 1362.8722 0.0000 0.0000 1737.7761 -7551.8154 299.8932 -9289.5914 -7548.3235 300.2449 -603.3903 -554.2895 30319.3791 3.4088 3.5953
ENERGY: 1900000 0.0000 0.0000 0.0000 0.0000 -10762.1101 1474.4995 0.0000 0.0000 1710.0714 -7577.5392 295.1122 -9287.6107 -7574.8701 300.0044 507.2551 594.8625 29838.7682 3.2981 3.1697
TCL: Exiting due to exit command.
