Info: SIMULATION PARAMETERS:
Info: TIMESTEP               2
Info: NUMBER OF STEPS        0
Info: STEPS PER CYCLE        10
Info: PERIODIC CELL BASIS 1  36.592 0 0
Info: PERIODIC CELL BASIS 2  0 36.451 0
Info: PERIODIC CELL BASIS 3  0 0 33.27
Info: PERIODIC CELL CENTER   0 0 0
Info: WRAPPING WATERS AROUND PERIODIC BOUNDARIES ON OUTPUT.
Info: WRAPPING ALL CLUSTERS AROUND PERIODIC BOUNDARIES ON OUTPUT.
Info: FIRST LDB TIMESTEP     50
Info: LAST LDB TIMESTEP     -1
Info: HOM BACKGROUND SCALING 1
Info: PME BACKGROUND SCALING 1
Info: MIN ATOMS PER PATCH    40
Info: EMPTY PATCH LOAD       40 ATOMS
Info: INITIAL TEMPERATURE    300
Info: CENTER OF MASS MOVING INITIALLY? NO
Info: DIELECTRIC             1
Info: EXCLUDE                SCALED ONE-FOUR
Info: 1-4 ELECTROSTATICS SCALED BY 0.833333
Info: MODIFIED 1-4 VDW PARAMETERS WILL BE USED
Info: DCD FILENAME           mobley_4035953_equil.dcd
Info: DCD FREQUENCY          100000
Info: DCD FIRST STEP         100000
Info: DCD FILE WILL CONTAIN UNIT CELL DATA
Info: XST FILENAME           mobley_4035953_equil.xst
Info: XST FREQUENCY          100000
Info: NO VELOCITY DCD OUTPUT
Info: NO FORCE DCD OUTPUT
Info: OUTPUT FILENAME        mobley_4035953_equil
Info: BINARY OUTPUT FILES WILL BE USED
Info: RESTART FILENAME       mobley_4035953_equil.restart
Info: RESTART FREQUENCY      100000
Info: BINARY RESTART FILES WILL BE USED
Info: CUTOFF                 9
Info: PAIRLIST DISTANCE      11
Info: PAIRLIST SHRINK RATE   0.01
Info: PAIRLIST GROW RATE     0.01
Info: PAIRLIST TRIGGER       0.3
Info: PAIRLISTS PER CYCLE    2
Info: PAIRLISTS ENABLED
Info: MARGIN                 8
Info: HYDROGEN GROUP CUTOFF  2.5
Info: PATCH DIMENSION        21.5
Info: ENERGY OUTPUT STEPS    100000
Info: ENERGY EVALUATION STEPS    100000
Info: OUTPUT ENERGY PRECISION 4
Info: CROSSTERM ENERGY INCLUDED IN DIHEDRAL
Info: TIMING OUTPUT STEPS    1000000
Info: PRESSURE OUTPUT STEPS  100000
Info: FIXED ATOMS ACTIVE
Info: LANGEVIN DYNAMICS ACTIVE
Info: LANGEVIN TEMPERATURE   30
Info: LANGEVIN USING BBK INTEGRATOR
Info: LANGEVIN DAMPING COEFFICIENT IS 1 INVERSE PS
Info: LANGEVIN DYNAMICS APPLIED TO HYDROGENS
Info: LANGEVIN PISTON PRESSURE CONTROL ACTIVE
Info:        TARGET PRESSURE IS 1.01325 BAR
Info:     OSCILLATION PERIOD IS 50 FS
Info:             DECAY TIME IS 25 FS
Info:     PISTON TEMPERATURE IS 300 K
Info:       PRESSURE CONTROL IS GROUP-BASED
Info:    INITIAL STRAIN RATE IS 0 0 0
Info:       CELL FLUCTUATION IS ISOTROPIC
Info: PARTICLE MESH EWALD (PME) ACTIVE
Info: PME TOLERANCE               1e-06
Info: PME EWALD COEFFICIENT       0.348832
Info: PME INTERPOLATION ORDER     4
Info: PME GRID DIMENSIONS         40 40 36
Info: PME MAXIMUM GRID SPACING    1
Info: FULL ELECTROSTATIC EVALUATION FREQUENCY      2
Info: USING VERLET I (r-RESPA) MTS SCHEME.
Info: C1 SPLITTING OF LONG RANGE ELECTROSTATICS
Info: PLACING ATOMS IN PATCHES BY HYDROGEN GROUPS
Info: RIGID BONDS TO HYDROGEN : ALL
Info:         ERROR TOLERANCE : 1e-08
Info:          MAX ITERATIONS : 100
Info: RIGID WATER USING SETTLE ALGORITHM
Info: RANDOM NUMBER SEED     1743739284
Info: USE HYDROGEN BONDS?    NO
Info: Using AMBER format force field!
Info: AMBER PARM FILE        mobley_4035953.prmtop
Info: COORDINATE PDB         mobley_4035953.pdb
Info: Exclusions will be read from PARM file!
Info: SCNB (VDW SCALING)     2
Info: USING ARITHMETIC MEAN TO COMBINE L-J SIGMA PARAMETERS
Info: BINARY COORDINATES     mobley_4035953_min.coor
Info: SUMMARY OF PARAMETERS:
Info: 8 BONDS
Info: 7 ANGLES
Info:   7 HARMONIC
Info:   0 COSINE-BASED
Info: 4 DIHEDRAL
Info: 0 IMPROPER
Info: 0 CROSSTERM
Info: 0 VDW
Info: 28 VDW_PAIRS
Info: 0 NBTHOLE_PAIRS
Info: STRUCTURE SUMMARY:
Info: 2938 ATOMS
Info: 2938 BONDS
Info: 25 ANGLES
Info: 38 DIHEDRALS
Info: 0 IMPROPERS
Info: 0 CROSSTERMS
Info: 2992 EXCLUSIONS
Info: 16 FIXED ATOMS
Info: 2930 RIGID BONDS
Info: 8 RIGID BONDS BETWEEN FIXED ATOMS
Info: 5844 DEGREES OF FREEDOM
Info: 982 HYDROGEN GROUPS
Info: 4 ATOMS IN LARGEST HYDROGEN GROUP
Info: 982 MIGRATION GROUPS
Info: 4 ATOMS IN LARGEST MIGRATION GROUP
Info: 8 HYDROGEN GROUPS WITH ALL ATOMS FIXED
Info: TOTAL MASS = 17655.7 amu
Info: TOTAL CHARGE = -9.99942e-05 e
Info: MASS DENSITY = 0.660688 g/cm^3
Info: ATOM DENSITY = 0.0662069 atoms/A^3
Info: ADDED 0 IMPLICIT EXCLUSIONS
Info: NONBONDED TABLE R-SQUARED SPACING: 0.0625
Info: NONBONDED TABLE SIZE: 705 POINTS
Info: REMOVING COM VELOCITY 0.0941976 0.0226105 0.237588
TCL: Running for 100000 steps
ETITLE: TS BOND ANGLE DIHED IMPRP ELECT VDW BOUNDARY MISC KINETIC TOTAL TEMP POTENTIAL TOTAL3 TEMPAVG PRESSURE GPRESSURE VOLUME PRESSAVG GPRESSAVG
ENERGY: 0 0.0000 0.0000 0.0000 0.0000 -13586.8791 2351.4927 0.0000 0.0000 1750.3982 -9484.9883 301.4512 -11235.3864 -9484.6629 301.4512 335.0927 368.8309 44376.0248 335.0927 368.8309
ENERGY: 100000 0.0000 0.0000 0.0000 0.0000 -14032.0421 2308.1338 0.0000 0.0000 177.8318 -11546.0765 30.6259 -11723.9083 -11545.7947 30.9375 -1094.5260 -1046.3634 28993.8417 3.4865 3.5563
TCL: Running 100000 steps at 60 kelvin.
TCL: Setting parameter langevinTemp to 60
TCL: Running for 100000 steps
ETITLE: TS BOND ANGLE DIHED IMPRP ELECT VDW BOUNDARY MISC KINETIC TOTAL TEMP POTENTIAL TOTAL3 TEMPAVG PRESSURE GPRESSURE VOLUME PRESSAVG GPRESSAVG
ENERGY: 100000 0.0000 0.0000 0.0000 0.0000 -14032.0421 2308.1338 0.0000 0.0000 177.7465 -11546.1618 30.6113 -11723.9083 -11545.7692 30.6113 -1100.1043 -1046.5323 28993.8417 -1100.1043 -1046.5323
ENERGY: 200000 0.0000 0.0000 0.0000 0.0000 -13900.4790 2267.2074 0.0000 0.0000 334.0655 -11299.2061 57.5323 -11633.2716 -11298.4163 60.0289 -1060.7224 -1033.9046 28854.3725 5.2716 5.2544
TCL: Running 100000 steps at 90 kelvin.
TCL: Setting parameter langevinTemp to 90
TCL: Running for 100000 steps
ETITLE: TS BOND ANGLE DIHED IMPRP ELECT VDW BOUNDARY MISC KINETIC TOTAL TEMP POTENTIAL TOTAL3 TEMPAVG PRESSURE GPRESSURE VOLUME PRESSAVG GPRESSAVG
ENERGY: 200000 0.0000 0.0000 0.0000 0.0000 -13900.4790 2267.2074 0.0000 0.0000 333.8986 -11299.3730 57.5036 -11633.2716 -11298.6698 57.5036 -1079.3457 -1033.9429 28854.3725 -1079.3457 -1033.9429
ENERGY: 300000 0.0000 0.0000 0.0000 0.0000 -13974.9969 2411.6583 0.0000 0.0000 524.0216 -11039.3170 90.2463 -11563.3386 -11038.2669 90.0229 260.1822 343.2637 28614.9791 3.7758 3.7593
TCL: Running 100000 steps at 120 kelvin.
TCL: Setting parameter langevinTemp to 120
TCL: Running for 100000 steps
ETITLE: TS BOND ANGLE DIHED IMPRP ELECT VDW BOUNDARY MISC KINETIC TOTAL TEMP POTENTIAL TOTAL3 TEMPAVG PRESSURE GPRESSURE VOLUME PRESSAVG GPRESSAVG
ENERGY: 300000 0.0000 0.0000 0.0000 0.0000 -13974.9969 2411.6583 0.0000 0.0000 523.7717 -11039.5670 90.2032 -11563.3386 -11038.8304 90.2032 292.1345 342.7821 28614.9791 292.1345 342.7821
ENERGY: 400000 0.0000 0.0000 0.0000 0.0000 -13831.1061 2396.3553 0.0000 0.0000 719.9474 -10714.8034 123.9884 -11434.7509 -10712.3357 119.7321 709.0606 670.1214 28701.0762 3.1821 3.1892
TCL: Running 100000 steps at 150 kelvin.
TCL: Setting parameter langevinTemp to 150
TCL: Running for 100000 steps
ETITLE: TS BOND ANGLE DIHED IMPRP ELECT VDW BOUNDARY MISC KINETIC TOTAL TEMP POTENTIAL TOTAL3 TEMPAVG PRESSURE GPRESSURE VOLUME PRESSAVG GPRESSAVG
ENERGY: 400000 0.0000 0.0000 0.0000 0.0000 -13831.1061 2396.3553 0.0000 0.0000 719.5995 -10715.1514 123.9284 -11434.7509 -10713.7979 123.9284 626.4341 670.4941 28701.0762 626.4341 670.4941
ENERGY: 500000 0.0000 0.0000 0.0000 0.0000 -13457.7100 2222.6600 0.0000 0.0000 872.6050 -10362.4450 150.2789 -11235.0500 -10360.5984 149.8282 -125.6716 -90.7787 28925.6056 3.9906 3.8531
TCL: Running 100000 steps at 180 kelvin.
TCL: Setting parameter langevinTemp to 180
TCL: Running for 100000 steps
ETITLE: TS BOND ANGLE DIHED IMPRP ELECT VDW BOUNDARY MISC KINETIC TOTAL TEMP POTENTIAL TOTAL3 TEMPAVG PRESSURE GPRESSURE VOLUME PRESSAVG GPRESSAVG
ENERGY: 500000 0.0000 0.0000 0.0000 0.0000 -13457.7100 2222.6600 0.0000 0.0000 872.1647 -10362.8853 150.2030 -11235.0500 -10361.2836 150.2030 -148.6777 -90.4747 28925.6056 -148.6777 -90.4747
ENERGY: 600000 0.0000 0.0000 0.0000 0.0000 -13112.3649 2155.8412 0.0000 0.0000 1066.0293 -9890.4944 183.5901 -10956.5237 -9888.7702 180.0927 404.0046 488.2594 28870.4898 5.4551 5.3496
TCL: Running 100000 steps at 210 kelvin.
TCL: Setting parameter langevinTemp to 210
TCL: Running for 100000 steps
ETITLE: TS BOND ANGLE DIHED IMPRP ELECT VDW BOUNDARY MISC KINETIC TOTAL TEMP POTENTIAL TOTAL3 TEMPAVG PRESSURE GPRESSURE VOLUME PRESSAVG GPRESSAVG
ENERGY: 600000 0.0000 0.0000 0.0000 0.0000 -13112.3649 2155.8412 0.0000 0.0000 1065.5168 -9891.0069 183.5019 -10956.5237 -9888.7705 183.5019 416.8543 487.1932 28870.4898 416.8543 487.1932
ENERGY: 700000 0.0000 0.0000 0.0000 0.0000 -12462.3369 1927.6258 0.0000 0.0000 1176.3330 -9358.3781 202.5865 -10534.7111 -9356.1559 209.8213 298.9886 312.7380 28582.1805 3.5163 3.3670
TCL: Running 100000 steps at 240 kelvin.
TCL: Setting parameter langevinTemp to 240
TCL: Running for 100000 steps
ETITLE: TS BOND ANGLE DIHED IMPRP ELECT VDW BOUNDARY MISC KINETIC TOTAL TEMP POTENTIAL TOTAL3 TEMPAVG PRESSURE GPRESSURE VOLUME PRESSAVG GPRESSAVG
ENERGY: 700000 0.0000 0.0000 0.0000 0.0000 -12462.3369 1927.6258 0.0000 0.0000 1175.7141 -9358.9970 202.4799 -10534.7111 -9357.4670 202.4799 242.1998 313.6265 28582.1805 242.1998 313.6265
ENERGY: 800000 0.0000 0.0000 0.0000 0.0000 -11787.0618 1717.0166 0.0000 0.0000 1390.4027 -8679.6425 239.4533 -10070.0451 -8676.6181 240.4505 208.0828 280.3249 28754.2380 3.8709 3.8872
TCL: Running 100000 steps at 270 kelvin.
TCL: Setting parameter langevinTemp to 270
TCL: Running for 100000 steps
ETITLE: TS BOND ANGLE DIHED IMPRP ELECT VDW BOUNDARY MISC KINETIC TOTAL TEMP POTENTIAL TOTAL3 TEMPAVG PRESSURE GPRESSURE VOLUME PRESSAVG GPRESSAVG
ENERGY: 800000 0.0000 0.0000 0.0000 0.0000 -11787.0618 1717.0166 0.0000 0.0000 1389.6905 -8680.3546 239.3306 -10070.0451 -8677.8535 239.3306 200.8910 278.5765 28754.2380 200.8910 278.5765
ENERGY: 900000 0.0000 0.0000 0.0000 0.0000 -11118.8844 1531.1886 0.0000 0.0000 1548.5255 -8039.1703 266.6850 -9587.6957 -8035.8152 270.0388 -11.0365 91.2656 29421.5194 2.2898 2.1606
TCL: Running 1000000 steps at 300 kelvin.
TCL: Setting parameter langevinTemp to 300
TCL: Running for 1000000 steps
ETITLE: TS BOND ANGLE DIHED IMPRP ELECT VDW BOUNDARY MISC KINETIC TOTAL TEMP POTENTIAL TOTAL3 TEMPAVG PRESSURE GPRESSURE VOLUME PRESSAVG GPRESSAVG
ENERGY: 900000 0.0000 0.0000 0.0000 0.0000 -11118.8844 1531.1886 0.0000 0.0000 1547.7229 -8039.9728 266.5468 -9587.6957 -8037.9789 266.5468 16.0977 92.5134 29421.5194 16.0977 92.5134
ENERGY: 1100000 0.0000 0.0000 0.0000 0.0000 -10672.0991 1455.5226 0.0000 0.0000 1749.0485 -7467.5280 301.2188 -9216.5765 -7464.3671 300.4751 388.4735 566.5837 29978.3801 3.5372 3.6027
ENERGY: 1300000 0.0000 0.0000 0.0000 0.0000 -10561.5342 1374.7030 0.0000 0.0000 1686.1422 -7500.6890 290.3851 -9186.8312 -7496.4185 299.8684 -196.8486 -183.4672 30314.9783 3.2251 3.4648
ENERGY: 1500000 0.0000 0.0000 0.0000 0.0000 -10649.7393 1406.1929 0.0000 0.0000 1747.0849 -7496.4615 300.8806 -9243.5463 -7491.2075 300.2309 -159.5816 -79.7713 30254.5872 2.5468 2.6300
ENERGY: 1700000 0.0000 0.0000 0.0000 0.0000 -10708.7884 1447.4095 0.0000 0.0000 1755.1418 -7506.2370 302.2682 -9261.3789 -7501.8863 300.1077 -70.7766 52.8732 30235.4421 2.3258 2.4781
ENERGY: 1900000 0.0000 0.0000 0.0000 0.0000 -10602.0716 1357.2889 0.0000 0.0000 1832.9487 -7411.8340 315.6680 -9244.7827 -7407.4266 299.8865 -477.6734 -444.6701 30251.3531 3.4616 3.5383
TCL: Exiting due to exit command.
