Info: SIMULATION PARAMETERS:
Info: TIMESTEP               2
Info: NUMBER OF STEPS        0
Info: STEPS PER CYCLE        10
Info: PERIODIC CELL BASIS 1  37.38 0 0
Info: PERIODIC CELL BASIS 2  0 35.779 0
Info: PERIODIC CELL BASIS 3  0 0 31.855
Info: PERIODIC CELL CENTER   0 0 0
Info: WRAPPING WATERS AROUND PERIODIC BOUNDARIES ON OUTPUT.
Info: WRAPPING ALL CLUSTERS AROUND PERIODIC BOUNDARIES ON OUTPUT.
Info: FIRST LDB TIMESTEP     50
Info: LAST LDB TIMESTEP     -1
Info: HOM BACKGROUND SCALING 1
Info: PME BACKGROUND SCALING 1
Info: MIN ATOMS PER PATCH    40
Info: EMPTY PATCH LOAD       40 ATOMS
Info: INITIAL TEMPERATURE    300
Info: CENTER OF MASS MOVING INITIALLY? NO
Info: DIELECTRIC             1
Info: EXCLUDE                SCALED ONE-FOUR
Info: 1-4 ELECTROSTATICS SCALED BY 0.833333
Info: MODIFIED 1-4 VDW PARAMETERS WILL BE USED
Info: DCD FILENAME           mobley_2789243_equil.dcd
Info: DCD FREQUENCY          100000
Info: DCD FIRST STEP         100000
Info: DCD FILE WILL CONTAIN UNIT CELL DATA
Info: XST FILENAME           mobley_2789243_equil.xst
Info: XST FREQUENCY          100000
Info: NO VELOCITY DCD OUTPUT
Info: NO FORCE DCD OUTPUT
Info: OUTPUT FILENAME        mobley_2789243_equil
Info: BINARY OUTPUT FILES WILL BE USED
Info: RESTART FILENAME       mobley_2789243_equil.restart
Info: RESTART FREQUENCY      100000
Info: BINARY RESTART FILES WILL BE USED
Info: CUTOFF                 9
Info: PAIRLIST DISTANCE      11
Info: PAIRLIST SHRINK RATE   0.01
Info: PAIRLIST GROW RATE     0.01
Info: PAIRLIST TRIGGER       0.3
Info: PAIRLISTS PER CYCLE    2
Info: PAIRLISTS ENABLED
Info: MARGIN                 8
Info: HYDROGEN GROUP CUTOFF  2.5
Info: PATCH DIMENSION        21.5
Info: ENERGY OUTPUT STEPS    100000
Info: ENERGY EVALUATION STEPS    100000
Info: OUTPUT ENERGY PRECISION 4
Info: CROSSTERM ENERGY INCLUDED IN DIHEDRAL
Info: TIMING OUTPUT STEPS    1000000
Info: PRESSURE OUTPUT STEPS  100000
Info: FIXED ATOMS ACTIVE
Info: LANGEVIN DYNAMICS ACTIVE
Info: LANGEVIN TEMPERATURE   30
Info: LANGEVIN USING BBK INTEGRATOR
Info: LANGEVIN DAMPING COEFFICIENT IS 1 INVERSE PS
Info: LANGEVIN DYNAMICS APPLIED TO HYDROGENS
Info: LANGEVIN PISTON PRESSURE CONTROL ACTIVE
Info:        TARGET PRESSURE IS 1.01325 BAR
Info:     OSCILLATION PERIOD IS 50 FS
Info:             DECAY TIME IS 25 FS
Info:     PISTON TEMPERATURE IS 300 K
Info:       PRESSURE CONTROL IS GROUP-BASED
Info:    INITIAL STRAIN RATE IS 0 0 0
Info:       CELL FLUCTUATION IS ISOTROPIC
Info: PARTICLE MESH EWALD (PME) ACTIVE
Info: PME TOLERANCE               1e-06
Info: PME EWALD COEFFICIENT       0.348832
Info: PME INTERPOLATION ORDER     4
Info: PME GRID DIMENSIONS         40 36 32
Info: PME MAXIMUM GRID SPACING    1
Info: FULL ELECTROSTATIC EVALUATION FREQUENCY      2
Info: USING VERLET I (r-RESPA) MTS SCHEME.
Info: C1 SPLITTING OF LONG RANGE ELECTROSTATICS
Info: PLACING ATOMS IN PATCHES BY HYDROGEN GROUPS
Info: RIGID BONDS TO HYDROGEN : ALL
Info:         ERROR TOLERANCE : 1e-08
Info:          MAX ITERATIONS : 100
Info: RIGID WATER USING SETTLE ALGORITHM
Info: RANDOM NUMBER SEED     1743687527
Info: USE HYDROGEN BONDS?    NO
Info: Using AMBER format force field!
Info: AMBER PARM FILE        mobley_2789243.prmtop
Info: COORDINATE PDB         mobley_2789243.pdb
Info: Exclusions will be read from PARM file!
Info: SCNB (VDW SCALING)     2
Info: USING ARITHMETIC MEAN TO COMBINE L-J SIGMA PARAMETERS
Info: BINARY COORDINATES     mobley_2789243_min.coor
Info: SUMMARY OF PARAMETERS:
Info: 7 BONDS
Info: 7 ANGLES
Info:   7 HARMONIC
Info:   0 COSINE-BASED
Info: 3 DIHEDRAL
Info: 0 IMPROPER
Info: 0 CROSSTERM
Info: 0 VDW
Info: 28 VDW_PAIRS
Info: 0 NBTHOLE_PAIRS
Info: STRUCTURE SUMMARY:
Info: 2903 ATOMS
Info: 2903 BONDS
Info: 16 ANGLES
Info: 25 DIHEDRALS
Info: 0 IMPROPERS
Info: 0 CROSSTERMS
Info: 2936 EXCLUSIONS
Info: 11 FIXED ATOMS
Info: 2896 RIGID BONDS
Info: 4 RIGID BONDS BETWEEN FIXED ATOMS
Info: 5784 DEGREES OF FREEDOM
Info: 971 HYDROGEN GROUPS
Info: 3 ATOMS IN LARGEST HYDROGEN GROUP
Info: 971 MIGRATION GROUPS
Info: 3 ATOMS IN LARGEST MIGRATION GROUP
Info: 7 HYDROGEN GROUPS WITH ALL ATOMS FIXED
Info: TOTAL MASS = 17481 amu
Info: TOTAL CHARGE = 0.000200003 e
Info: MASS DENSITY = 0.681365 g/cm^3
Info: ATOM DENSITY = 0.06814 atoms/A^3
Info: ADDED 0 IMPLICIT EXCLUSIONS
Info: NONBONDED TABLE R-SQUARED SPACING: 0.0625
Info: NONBONDED TABLE SIZE: 705 POINTS
Info: REMOVING COM VELOCITY 0.143118 0.0905812 0.136284
TCL: Running for 100000 steps
ETITLE: TS BOND ANGLE DIHED IMPRP ELECT VDW BOUNDARY MISC KINETIC TOTAL TEMP POTENTIAL TOTAL3 TEMPAVG PRESSURE GPRESSURE VOLUME PRESSAVG GPRESSAVG
ENERGY: 0 0.0000 0.0000 0.0000 0.0000 -13489.2351 2372.8675 0.0000 0.0000 1745.3913 -9370.9763 303.7071 -11116.3676 -9370.6326 303.7071 507.8849 546.0346 42603.4829 507.8849 546.0346
ENERGY: 100000 0.0000 0.0000 0.0000 0.0000 -13970.0077 2341.5516 0.0000 0.0000 177.7802 -11450.6758 30.9347 -11628.4560 -11450.2315 30.9422 -712.6326 -674.9943 28091.2821 4.7614 4.7486
TCL: Running 100000 steps at 60 kelvin.
TCL: Setting parameter langevinTemp to 60
TCL: Running for 100000 steps
ETITLE: TS BOND ANGLE DIHED IMPRP ELECT VDW BOUNDARY MISC KINETIC TOTAL TEMP POTENTIAL TOTAL3 TEMPAVG PRESSURE GPRESSURE VOLUME PRESSAVG GPRESSAVG
ENERGY: 100000 0.0000 0.0000 0.0000 0.0000 -13970.0077 2341.5516 0.0000 0.0000 177.6956 -11450.7604 30.9199 -11628.4560 -11450.4002 30.9199 -715.3991 -674.9200 28091.2821 -715.3991 -674.9200
ENERGY: 200000 0.0000 0.0000 0.0000 0.0000 -13844.2364 2312.1779 0.0000 0.0000 350.2544 -11181.8041 60.9461 -11532.0585 -11180.6952 59.8685 -766.5520 -674.0370 28263.0119 2.8581 2.8589
TCL: Running 100000 steps at 90 kelvin.
TCL: Setting parameter langevinTemp to 90
TCL: Running for 100000 steps
ETITLE: TS BOND ANGLE DIHED IMPRP ELECT VDW BOUNDARY MISC KINETIC TOTAL TEMP POTENTIAL TOTAL3 TEMPAVG PRESSURE GPRESSURE VOLUME PRESSAVG GPRESSAVG
ENERGY: 200000 0.0000 0.0000 0.0000 0.0000 -13844.2364 2312.1779 0.0000 0.0000 350.0817 -11181.9768 60.9160 -11532.0585 -11181.1423 60.9160 -719.8458 -673.6988 28263.0119 -719.8458 -673.6988
ENERGY: 300000 0.0000 0.0000 0.0000 0.0000 -13784.6480 2298.6156 0.0000 0.0000 499.2827 -10986.7497 86.8778 -11486.0324 -10985.1990 89.9702 -296.0583 -254.2072 27749.1160 4.4041 4.3482
TCL: Running 100000 steps at 120 kelvin.
TCL: Setting parameter langevinTemp to 120
TCL: Running for 100000 steps
ETITLE: TS BOND ANGLE DIHED IMPRP ELECT VDW BOUNDARY MISC KINETIC TOTAL TEMP POTENTIAL TOTAL3 TEMPAVG PRESSURE GPRESSURE VOLUME PRESSAVG GPRESSAVG
ENERGY: 300000 0.0000 0.0000 0.0000 0.0000 -13784.6480 2298.6156 0.0000 0.0000 499.0280 -10987.0044 86.8334 -11486.0324 -10986.0614 86.8334 -320.0064 -253.7569 27749.1160 -320.0064 -253.7569
ENERGY: 400000 0.0000 0.0000 0.0000 0.0000 -13571.7761 2258.3011 0.0000 0.0000 705.6625 -10607.8125 122.7889 -11313.4750 -10605.7120 120.1469 80.9240 119.7732 27787.2873 4.4081 4.4455
TCL: Running 100000 steps at 150 kelvin.
TCL: Setting parameter langevinTemp to 150
TCL: Running for 100000 steps
ETITLE: TS BOND ANGLE DIHED IMPRP ELECT VDW BOUNDARY MISC KINETIC TOTAL TEMP POTENTIAL TOTAL3 TEMPAVG PRESSURE GPRESSURE VOLUME PRESSAVG GPRESSAVG
ENERGY: 400000 0.0000 0.0000 0.0000 0.0000 -13571.7761 2258.3011 0.0000 0.0000 705.3149 -10608.1600 122.7284 -11313.4750 -10606.3825 122.7284 61.3885 118.9034 27787.2873 61.3885 118.9034
ENERGY: 500000 0.0000 0.0000 0.0000 0.0000 -13319.7408 2160.9008 0.0000 0.0000 858.1906 -10300.6493 149.3296 -11158.8400 -10297.9522 149.6647 -419.6440 -408.9507 28396.0925 3.1799 3.2260
TCL: Running 100000 steps at 180 kelvin.
TCL: Setting parameter langevinTemp to 180
TCL: Running for 100000 steps
ETITLE: TS BOND ANGLE DIHED IMPRP ELECT VDW BOUNDARY MISC KINETIC TOTAL TEMP POTENTIAL TOTAL3 TEMPAVG PRESSURE GPRESSURE VOLUME PRESSAVG GPRESSAVG
ENERGY: 500000 0.0000 0.0000 0.0000 0.0000 -13319.7408 2160.9008 0.0000 0.0000 857.7514 -10301.0885 149.2532 -11158.8400 -10299.7476 149.2532 -451.7259 -408.3135 28396.0925 -451.7259 -408.3135
ENERGY: 600000 0.0000 0.0000 0.0000 0.0000 -13169.3598 2254.2376 0.0000 0.0000 1041.4277 -9873.6945 181.2138 -10915.1222 -9871.8294 180.1251 1273.4784 1332.2002 28279.4045 2.6838 2.6084
TCL: Running 100000 steps at 210 kelvin.
TCL: Setting parameter langevinTemp to 210
TCL: Running for 100000 steps
ETITLE: TS BOND ANGLE DIHED IMPRP ELECT VDW BOUNDARY MISC KINETIC TOTAL TEMP POTENTIAL TOTAL3 TEMPAVG PRESSURE GPRESSURE VOLUME PRESSAVG GPRESSAVG
ENERGY: 600000 0.0000 0.0000 0.0000 0.0000 -13169.3598 2254.2376 0.0000 0.0000 1040.9092 -9874.2130 181.1236 -10915.1222 -9872.3221 181.1236 1270.5489 1332.1915 28279.4045 1270.5489 1332.1915
ENERGY: 700000 0.0000 0.0000 0.0000 0.0000 -12269.7492 1856.7187 0.0000 0.0000 1217.7254 -9195.3050 211.8905 -10413.0305 -9191.3587 209.8131 -160.1616 -113.7903 28420.0726 3.5079 3.3483
TCL: Running 100000 steps at 240 kelvin.
TCL: Setting parameter langevinTemp to 240
TCL: Running for 100000 steps
ETITLE: TS BOND ANGLE DIHED IMPRP ELECT VDW BOUNDARY MISC KINETIC TOTAL TEMP POTENTIAL TOTAL3 TEMPAVG PRESSURE GPRESSURE VOLUME PRESSAVG GPRESSAVG
ENERGY: 700000 0.0000 0.0000 0.0000 0.0000 -12269.7492 1856.7187 0.0000 0.0000 1217.1365 -9195.8940 211.7880 -10413.0305 -9194.1117 211.7880 -184.0763 -111.7850 28420.0726 -184.0763 -111.7850
ENERGY: 800000 0.0000 0.0000 0.0000 0.0000 -11616.0148 1632.0237 0.0000 0.0000 1367.8645 -8616.1266 238.0155 -9983.9911 -8614.3939 239.4631 -449.2740 -401.7130 28774.4618 3.7472 3.8792
TCL: Running 100000 steps at 270 kelvin.
TCL: Setting parameter langevinTemp to 270
TCL: Running for 100000 steps
ETITLE: TS BOND ANGLE DIHED IMPRP ELECT VDW BOUNDARY MISC KINETIC TOTAL TEMP POTENTIAL TOTAL3 TEMPAVG PRESSURE GPRESSURE VOLUME PRESSAVG GPRESSAVG
ENERGY: 800000 0.0000 0.0000 0.0000 0.0000 -11616.0148 1632.0237 0.0000 0.0000 1367.1778 -8616.8133 237.8960 -9983.9911 -8613.9756 237.8960 -475.8272 -402.7255 28774.4618 -475.8272 -402.7255
ENERGY: 900000 0.0000 0.0000 0.0000 0.0000 -11120.0009 1537.4641 0.0000 0.0000 1601.3092 -7981.2276 278.6361 -9582.5368 -7976.4623 269.3187 9.1351 131.7823 29019.3945 3.7231 3.7426
TCL: Running 1000000 steps at 300 kelvin.
TCL: Setting parameter langevinTemp to 300
TCL: Running for 1000000 steps
ETITLE: TS BOND ANGLE DIHED IMPRP ELECT VDW BOUNDARY MISC KINETIC TOTAL TEMP POTENTIAL TOTAL3 TEMPAVG PRESSURE GPRESSURE VOLUME PRESSAVG GPRESSAVG
ENERGY: 900000 0.0000 0.0000 0.0000 0.0000 -11120.0009 1537.4641 0.0000 0.0000 1600.5481 -7981.9887 278.5036 -9582.5368 -7979.8927 278.5036 50.5780 134.4691 29019.3945 50.5780 134.4691
ENERGY: 1100000 0.0000 0.0000 0.0000 0.0000 -10585.5749 1438.3157 0.0000 0.0000 1701.4424 -7445.8167 296.0597 -9147.2591 -7444.1863 300.3859 105.4239 199.8710 30169.3003 3.1802 3.0599
ENERGY: 1300000 0.0000 0.0000 0.0000 0.0000 -10555.0312 1404.3576 0.0000 0.0000 1722.6496 -7428.0240 299.7499 -9150.6736 -7425.8947 300.5856 -87.6788 -11.7048 30114.6889 3.3776 3.4890
ENERGY: 1500000 0.0000 0.0000 0.0000 0.0000 -10604.5426 1488.3885 0.0000 0.0000 1729.9917 -7386.1624 301.0275 -9116.1541 -7381.6193 299.6378 678.9855 810.8771 29974.0533 4.1074 4.1267
ENERGY: 1700000 0.0000 0.0000 0.0000 0.0000 -10635.5273 1413.5901 0.0000 0.0000 1729.1025 -7492.8347 300.8727 -9221.9372 -7489.4008 299.6901 19.0675 47.2686 29678.1250 3.0913 3.1339
ENERGY: 1900000 0.0000 0.0000 0.0000 0.0000 -10594.5479 1384.3676 0.0000 0.0000 1713.1659 -7497.0145 298.0997 -9210.1804 -7493.2202 300.1156 -529.1006 -435.5977 30230.2731 2.2842 2.2479
TCL: Exiting due to exit command.
