Info: SIMULATION PARAMETERS:
Info: TIMESTEP               2
Info: NUMBER OF STEPS        0
Info: STEPS PER CYCLE        10
Info: PERIODIC CELL BASIS 1  37.38 0 0
Info: PERIODIC CELL BASIS 2  0 36.032 0
Info: PERIODIC CELL BASIS 3  0 0 31.855
Info: PERIODIC CELL CENTER   0 0 0
Info: WRAPPING WATERS AROUND PERIODIC BOUNDARIES ON OUTPUT.
Info: WRAPPING ALL CLUSTERS AROUND PERIODIC BOUNDARIES ON OUTPUT.
Info: FIRST LDB TIMESTEP     50
Info: LAST LDB TIMESTEP     -1
Info: HOM BACKGROUND SCALING 1
Info: PME BACKGROUND SCALING 1
Info: MIN ATOMS PER PATCH    40
Info: EMPTY PATCH LOAD       40 ATOMS
Info: INITIAL TEMPERATURE    300
Info: CENTER OF MASS MOVING INITIALLY? NO
Info: DIELECTRIC             1
Info: EXCLUDE                SCALED ONE-FOUR
Info: 1-4 ELECTROSTATICS SCALED BY 0.833333
Info: MODIFIED 1-4 VDW PARAMETERS WILL BE USED
Info: DCD FILENAME           mobley_8798016_equil.dcd
Info: DCD FREQUENCY          100000
Info: DCD FIRST STEP         100000
Info: DCD FILE WILL CONTAIN UNIT CELL DATA
Info: XST FILENAME           mobley_8798016_equil.xst
Info: XST FREQUENCY          100000
Info: NO VELOCITY DCD OUTPUT
Info: NO FORCE DCD OUTPUT
Info: OUTPUT FILENAME        mobley_8798016_equil
Info: BINARY OUTPUT FILES WILL BE USED
Info: RESTART FILENAME       mobley_8798016_equil.restart
Info: RESTART FREQUENCY      100000
Info: BINARY RESTART FILES WILL BE USED
Info: CUTOFF                 9
Info: PAIRLIST DISTANCE      11
Info: PAIRLIST SHRINK RATE   0.01
Info: PAIRLIST GROW RATE     0.01
Info: PAIRLIST TRIGGER       0.3
Info: PAIRLISTS PER CYCLE    2
Info: PAIRLISTS ENABLED
Info: MARGIN                 8
Info: HYDROGEN GROUP CUTOFF  2.5
Info: PATCH DIMENSION        21.5
Info: ENERGY OUTPUT STEPS    100000
Info: ENERGY EVALUATION STEPS    100000
Info: OUTPUT ENERGY PRECISION 4
Info: CROSSTERM ENERGY INCLUDED IN DIHEDRAL
Info: TIMING OUTPUT STEPS    1000000
Info: PRESSURE OUTPUT STEPS  100000
Info: FIXED ATOMS ACTIVE
Info: LANGEVIN DYNAMICS ACTIVE
Info: LANGEVIN TEMPERATURE   30
Info: LANGEVIN USING BBK INTEGRATOR
Info: LANGEVIN DAMPING COEFFICIENT IS 1 INVERSE PS
Info: LANGEVIN DYNAMICS APPLIED TO HYDROGENS
Info: LANGEVIN PISTON PRESSURE CONTROL ACTIVE
Info:        TARGET PRESSURE IS 1.01325 BAR
Info:     OSCILLATION PERIOD IS 50 FS
Info:             DECAY TIME IS 25 FS
Info:     PISTON TEMPERATURE IS 300 K
Info:       PRESSURE CONTROL IS GROUP-BASED
Info:    INITIAL STRAIN RATE IS 0 0 0
Info:       CELL FLUCTUATION IS ISOTROPIC
Info: PARTICLE MESH EWALD (PME) ACTIVE
Info: PME TOLERANCE               1e-06
Info: PME EWALD COEFFICIENT       0.348832
Info: PME INTERPOLATION ORDER     4
Info: PME GRID DIMENSIONS         40 40 32
Info: PME MAXIMUM GRID SPACING    1
Info: FULL ELECTROSTATIC EVALUATION FREQUENCY      2
Info: USING VERLET I (r-RESPA) MTS SCHEME.
Info: C1 SPLITTING OF LONG RANGE ELECTROSTATICS
Info: PLACING ATOMS IN PATCHES BY HYDROGEN GROUPS
Info: RIGID BONDS TO HYDROGEN : ALL
Info:         ERROR TOLERANCE : 1e-08
Info:          MAX ITERATIONS : 100
Info: RIGID WATER USING SETTLE ALGORITHM
Info: RANDOM NUMBER SEED     1743901006
Info: USE HYDROGEN BONDS?    NO
Info: Using AMBER format force field!
Info: AMBER PARM FILE        mobley_8798016.prmtop
Info: COORDINATE PDB         mobley_8798016.pdb
Info: Exclusions will be read from PARM file!
Info: SCNB (VDW SCALING)     2
Info: USING ARITHMETIC MEAN TO COMBINE L-J SIGMA PARAMETERS
Info: BINARY COORDINATES     mobley_8798016_min.coor
Info: SUMMARY OF PARAMETERS:
Info: 9 BONDS
Info: 10 ANGLES
Info:   10 HARMONIC
Info:   0 COSINE-BASED
Info: 5 DIHEDRAL
Info: 0 IMPROPER
Info: 0 CROSSTERM
Info: 0 VDW
Info: 28 VDW_PAIRS
Info: 0 NBTHOLE_PAIRS
Info: STRUCTURE SUMMARY:
Info: 2920 ATOMS
Info: 2920 BONDS
Info: 19 ANGLES
Info: 30 DIHEDRALS
Info: 0 IMPROPERS
Info: 0 CROSSTERMS
Info: 2960 EXCLUSIONS
Info: 13 FIXED ATOMS
Info: 2912 RIGID BONDS
Info: 5 RIGID BONDS BETWEEN FIXED ATOMS
Info: 5814 DEGREES OF FREEDOM
Info: 977 HYDROGEN GROUPS
Info: 3 ATOMS IN LARGEST HYDROGEN GROUP
Info: 977 MIGRATION GROUPS
Info: 3 ATOMS IN LARGEST MIGRATION GROUP
Info: 8 HYDROGEN GROUPS WITH ALL ATOMS FIXED
Info: TOTAL MASS = 17564.6 amu
Info: TOTAL CHARGE = -0.000299999 e
Info: MASS DENSITY = 0.679818 g/cm^3
Info: ATOM DENSITY = 0.0680577 atoms/A^3
Info: ADDED 0 IMPLICIT EXCLUSIONS
Info: NONBONDED TABLE R-SQUARED SPACING: 0.0625
Info: NONBONDED TABLE SIZE: 705 POINTS
Info: REMOVING COM VELOCITY 0.0342163 -0.0461622 0.0111921
TCL: Running for 100000 steps
ETITLE: TS BOND ANGLE DIHED IMPRP ELECT VDW BOUNDARY MISC KINETIC TOTAL TEMP POTENTIAL TOTAL3 TEMPAVG PRESSURE GPRESSURE VOLUME PRESSAVG GPRESSAVG
ENERGY: 0 0.0000 0.0000 0.0000 0.0000 -13617.2657 2389.0232 0.0000 0.0000 1732.6486 -9495.5940 299.9341 -11228.2426 -9495.2903 299.9341 497.4149 528.0472 42904.7401 497.4149 528.0472
ENERGY: 100000 0.0000 0.0000 0.0000 0.0000 -14091.4841 2402.4718 0.0000 0.0000 173.7148 -11515.2975 30.0713 -11689.0123 -11514.8953 30.8680 -183.2106 -112.7689 28422.8030 3.7826 3.8339
TCL: Running 100000 steps at 60 kelvin.
TCL: Setting parameter langevinTemp to 60
TCL: Running for 100000 steps
ETITLE: TS BOND ANGLE DIHED IMPRP ELECT VDW BOUNDARY MISC KINETIC TOTAL TEMP POTENTIAL TOTAL3 TEMPAVG PRESSURE GPRESSURE VOLUME PRESSAVG GPRESSAVG
ENERGY: 100000 0.0000 0.0000 0.0000 0.0000 -14091.4841 2402.4718 0.0000 0.0000 173.6279 -11515.3844 30.0563 -11689.0123 -11514.8696 30.0563 -167.1874 -113.0605 28422.8030 -167.1874 -113.0605
ENERGY: 200000 0.0000 0.0000 0.0000 0.0000 -13906.1468 2243.3840 0.0000 0.0000 350.2205 -11312.5423 60.6257 -11662.7628 -11311.3411 60.0617 -1327.5994 -1270.0834 28308.4607 3.8836 3.8624
TCL: Running 100000 steps at 90 kelvin.
TCL: Setting parameter langevinTemp to 90
TCL: Running for 100000 steps
ETITLE: TS BOND ANGLE DIHED IMPRP ELECT VDW BOUNDARY MISC KINETIC TOTAL TEMP POTENTIAL TOTAL3 TEMPAVG PRESSURE GPRESSURE VOLUME PRESSAVG GPRESSAVG
ENERGY: 200000 0.0000 0.0000 0.0000 0.0000 -13906.1468 2243.3840 0.0000 0.0000 350.0490 -11312.7138 60.5960 -11662.7628 -11312.0014 60.5960 -1334.8474 -1269.4089 28308.4607 -1334.8474 -1269.4089
ENERGY: 300000 0.0000 0.0000 0.0000 0.0000 -13719.3538 2154.3248 0.0000 0.0000 514.2617 -11050.7672 89.0225 -11565.0290 -11049.3267 89.8944 -1525.0062 -1477.8964 28244.4277 5.0315 5.0309
TCL: Running 100000 steps at 120 kelvin.
TCL: Setting parameter langevinTemp to 120
TCL: Running for 100000 steps
ETITLE: TS BOND ANGLE DIHED IMPRP ELECT VDW BOUNDARY MISC KINETIC TOTAL TEMP POTENTIAL TOTAL3 TEMPAVG PRESSURE GPRESSURE VOLUME PRESSAVG GPRESSAVG
ENERGY: 300000 0.0000 0.0000 0.0000 0.0000 -13719.3538 2154.3248 0.0000 0.0000 514.0072 -11051.0218 88.9784 -11565.0290 -11049.7627 88.9784 -1529.8423 -1478.2150 28244.4277 -1529.8423 -1478.2150
ENERGY: 400000 0.0000 0.0000 0.0000 0.0000 -13669.1455 2275.6169 0.0000 0.0000 681.5086 -10712.0200 117.9741 -11393.5286 -10711.0601 120.0090 36.8581 79.9019 28309.2985 3.5686 3.4532
TCL: Running 100000 steps at 150 kelvin.
TCL: Setting parameter langevinTemp to 150
TCL: Running for 100000 steps
ETITLE: TS BOND ANGLE DIHED IMPRP ELECT VDW BOUNDARY MISC KINETIC TOTAL TEMP POTENTIAL TOTAL3 TEMPAVG PRESSURE GPRESSURE VOLUME PRESSAVG GPRESSAVG
ENERGY: 400000 0.0000 0.0000 0.0000 0.0000 -13669.1455 2275.6169 0.0000 0.0000 681.1554 -10712.3732 117.9130 -11393.5286 -10710.7094 117.9130 31.4548 79.9907 28309.2985 31.4548 79.9907
ENERGY: 500000 0.0000 0.0000 0.0000 0.0000 -13594.4615 2302.5042 0.0000 0.0000 871.5704 -10420.3870 150.8752 -11291.9573 -10418.0183 149.4476 525.5637 588.1209 28559.0750 4.9150 4.8588
TCL: Running 100000 steps at 180 kelvin.
TCL: Setting parameter langevinTemp to 180
TCL: Running for 100000 steps
ETITLE: TS BOND ANGLE DIHED IMPRP ELECT VDW BOUNDARY MISC KINETIC TOTAL TEMP POTENTIAL TOTAL3 TEMPAVG PRESSURE GPRESSURE VOLUME PRESSAVG GPRESSAVG
ENERGY: 500000 0.0000 0.0000 0.0000 0.0000 -13594.4615 2302.5042 0.0000 0.0000 871.1441 -10420.8132 150.8014 -11291.9573 -10419.0699 150.8014 528.7362 588.0115 28559.0750 528.7362 588.0115
ENERGY: 600000 0.0000 0.0000 0.0000 0.0000 -13256.6414 2229.0029 0.0000 0.0000 1055.9065 -9971.7320 182.7851 -11027.6385 -9969.7210 180.2373 796.4081 813.2285 28764.6278 3.7122 3.5740
TCL: Running 100000 steps at 210 kelvin.
TCL: Setting parameter langevinTemp to 210
TCL: Running for 100000 steps
ETITLE: TS BOND ANGLE DIHED IMPRP ELECT VDW BOUNDARY MISC KINETIC TOTAL TEMP POTENTIAL TOTAL3 TEMPAVG PRESSURE GPRESSURE VOLUME PRESSAVG GPRESSAVG
ENERGY: 600000 0.0000 0.0000 0.0000 0.0000 -13256.6414 2229.0029 0.0000 0.0000 1055.3693 -9972.2692 182.6921 -11027.6385 -9970.8463 182.6921 748.9159 813.3905 28764.6278 748.9159 813.3905
ENERGY: 700000 0.0000 0.0000 0.0000 0.0000 -12507.8964 1936.8445 0.0000 0.0000 1202.2566 -9368.7953 208.1194 -10571.0519 -9366.1804 209.4058 272.0049 365.8909 28511.8596 3.0011 2.8788
TCL: Running 100000 steps at 240 kelvin.
TCL: Setting parameter langevinTemp to 240
TCL: Running for 100000 steps
ETITLE: TS BOND ANGLE DIHED IMPRP ELECT VDW BOUNDARY MISC KINETIC TOTAL TEMP POTENTIAL TOTAL3 TEMPAVG PRESSURE GPRESSURE VOLUME PRESSAVG GPRESSAVG
ENERGY: 700000 0.0000 0.0000 0.0000 0.0000 -12507.8964 1936.8445 0.0000 0.0000 1201.6551 -9369.3968 208.0153 -10571.0519 -9366.9739 208.0153 302.9074 365.2562 28511.8596 302.9074 365.2562
ENERGY: 800000 0.0000 0.0000 0.0000 0.0000 -11764.7373 1650.4815 0.0000 0.0000 1342.0058 -8772.2501 232.3110 -10114.2559 -8768.0817 240.3426 -455.6662 -415.0282 28660.8205 4.2593 4.1940
TCL: Running 100000 steps at 270 kelvin.
TCL: Setting parameter langevinTemp to 270
TCL: Running for 100000 steps
ETITLE: TS BOND ANGLE DIHED IMPRP ELECT VDW BOUNDARY MISC KINETIC TOTAL TEMP POTENTIAL TOTAL3 TEMPAVG PRESSURE GPRESSURE VOLUME PRESSAVG GPRESSAVG
ENERGY: 800000 0.0000 0.0000 0.0000 0.0000 -11764.7373 1650.4815 0.0000 0.0000 1341.2953 -8772.9605 232.1880 -10114.2559 -8771.0131 232.1880 -493.0572 -413.1461 28660.8205 -493.0572 -413.1461
ENERGY: 900000 0.0000 0.0000 0.0000 0.0000 -11131.9306 1503.0531 0.0000 0.0000 1574.9980 -8053.8795 272.6436 -9628.8775 -8051.2446 269.9587 -379.3261 -287.2330 29623.8662 3.7346 3.8740
TCL: Running 1000000 steps at 300 kelvin.
TCL: Setting parameter langevinTemp to 300
TCL: Running for 1000000 steps
ETITLE: TS BOND ANGLE DIHED IMPRP ELECT VDW BOUNDARY MISC KINETIC TOTAL TEMP POTENTIAL TOTAL3 TEMPAVG PRESSURE GPRESSURE VOLUME PRESSAVG GPRESSAVG
ENERGY: 900000 0.0000 0.0000 0.0000 0.0000 -11131.9306 1503.0531 0.0000 0.0000 1574.2288 -8054.6487 272.5105 -9628.8775 -8052.4832 272.5105 -364.8968 -285.5534 29623.8662 -364.8968 -285.5534
ENERGY: 1100000 0.0000 0.0000 0.0000 0.0000 -10654.4356 1296.2434 0.0000 0.0000 1687.5491 -7670.6432 292.1271 -9358.1923 -7667.4939 300.1309 -1186.5741 -1175.9347 30015.1877 2.8243 2.9671
ENERGY: 1300000 0.0000 0.0000 0.0000 0.0000 -10577.8835 1363.8913 0.0000 0.0000 1750.2241 -7463.7680 302.9766 -9213.9921 -7460.2432 299.7315 -494.2349 -450.9965 30786.4250 4.0193 3.9067
ENERGY: 1500000 0.0000 0.0000 0.0000 0.0000 -10716.7631 1446.1352 0.0000 0.0000 1725.1821 -7545.4459 298.6416 -9270.6279 -7542.6866 299.9317 -38.7410 44.5546 30368.6931 1.0915 1.2101
ENERGY: 1700000 0.0000 0.0000 0.0000 0.0000 -10628.5319 1416.7432 0.0000 0.0000 1734.6432 -7477.1455 300.2794 -9211.7887 -7474.0618 300.4616 8.1755 121.5632 30078.7853 2.6127 2.6185
ENERGY: 1900000 0.0000 0.0000 0.0000 0.0000 -10552.2496 1321.0323 0.0000 0.0000 1725.2852 -7505.9321 298.6594 -9231.2173 -7500.8756 299.5895 -653.5780 -630.1068 30201.3000 3.5156 3.3790
TCL: Exiting due to exit command.
