Info: SIMULATION PARAMETERS:
Info: TIMESTEP               2
Info: NUMBER OF STEPS        0
Info: STEPS PER CYCLE        10
Info: PERIODIC CELL BASIS 1  37.38 0 0
Info: PERIODIC CELL BASIS 2  0 36.451 0
Info: PERIODIC CELL BASIS 3  0 0 32.993
Info: PERIODIC CELL CENTER   0 0 0
Info: WRAPPING WATERS AROUND PERIODIC BOUNDARIES ON OUTPUT.
Info: WRAPPING ALL CLUSTERS AROUND PERIODIC BOUNDARIES ON OUTPUT.
Info: FIRST LDB TIMESTEP     50
Info: LAST LDB TIMESTEP     -1
Info: HOM BACKGROUND SCALING 1
Info: PME BACKGROUND SCALING 1
Info: MIN ATOMS PER PATCH    40
Info: EMPTY PATCH LOAD       40 ATOMS
Info: INITIAL TEMPERATURE    300
Info: CENTER OF MASS MOVING INITIALLY? NO
Info: DIELECTRIC             1
Info: EXCLUDE                SCALED ONE-FOUR
Info: 1-4 ELECTROSTATICS SCALED BY 0.833333
Info: MODIFIED 1-4 VDW PARAMETERS WILL BE USED
Info: DCD FILENAME           mobley_6743808_equil.dcd
Info: DCD FREQUENCY          100000
Info: DCD FIRST STEP         100000
Info: DCD FILE WILL CONTAIN UNIT CELL DATA
Info: XST FILENAME           mobley_6743808_equil.xst
Info: XST FREQUENCY          100000
Info: NO VELOCITY DCD OUTPUT
Info: NO FORCE DCD OUTPUT
Info: OUTPUT FILENAME        mobley_6743808_equil
Info: BINARY OUTPUT FILES WILL BE USED
Info: RESTART FILENAME       mobley_6743808_equil.restart
Info: RESTART FREQUENCY      100000
Info: BINARY RESTART FILES WILL BE USED
Info: CUTOFF                 9
Info: PAIRLIST DISTANCE      11
Info: PAIRLIST SHRINK RATE   0.01
Info: PAIRLIST GROW RATE     0.01
Info: PAIRLIST TRIGGER       0.3
Info: PAIRLISTS PER CYCLE    2
Info: PAIRLISTS ENABLED
Info: MARGIN                 8
Info: HYDROGEN GROUP CUTOFF  2.5
Info: PATCH DIMENSION        21.5
Info: ENERGY OUTPUT STEPS    100000
Info: ENERGY EVALUATION STEPS    100000
Info: OUTPUT ENERGY PRECISION 4
Info: CROSSTERM ENERGY INCLUDED IN DIHEDRAL
Info: TIMING OUTPUT STEPS    1000000
Info: PRESSURE OUTPUT STEPS  100000
Info: FIXED ATOMS ACTIVE
Info: LANGEVIN DYNAMICS ACTIVE
Info: LANGEVIN TEMPERATURE   30
Info: LANGEVIN USING BBK INTEGRATOR
Info: LANGEVIN DAMPING COEFFICIENT IS 1 INVERSE PS
Info: LANGEVIN DYNAMICS APPLIED TO HYDROGENS
Info: LANGEVIN PISTON PRESSURE CONTROL ACTIVE
Info:        TARGET PRESSURE IS 1.01325 BAR
Info:     OSCILLATION PERIOD IS 50 FS
Info:             DECAY TIME IS 25 FS
Info:     PISTON TEMPERATURE IS 300 K
Info:       PRESSURE CONTROL IS GROUP-BASED
Info:    INITIAL STRAIN RATE IS 0 0 0
Info:       CELL FLUCTUATION IS ISOTROPIC
Info: PARTICLE MESH EWALD (PME) ACTIVE
Info: PME TOLERANCE               1e-06
Info: PME EWALD COEFFICIENT       0.348832
Info: PME INTERPOLATION ORDER     4
Info: PME GRID DIMENSIONS         40 40 36
Info: PME MAXIMUM GRID SPACING    1
Info: FULL ELECTROSTATIC EVALUATION FREQUENCY      2
Info: USING VERLET I (r-RESPA) MTS SCHEME.
Info: C1 SPLITTING OF LONG RANGE ELECTROSTATICS
Info: PLACING ATOMS IN PATCHES BY HYDROGEN GROUPS
Info: RIGID BONDS TO HYDROGEN : ALL
Info:         ERROR TOLERANCE : 1e-08
Info:          MAX ITERATIONS : 100
Info: RIGID WATER USING SETTLE ALGORITHM
Info: RANDOM NUMBER SEED     1743764082
Info: USE HYDROGEN BONDS?    NO
Info: Using AMBER format force field!
Info: AMBER PARM FILE        mobley_6743808.prmtop
Info: COORDINATE PDB         mobley_6743808.pdb
Info: Exclusions will be read from PARM file!
Info: SCNB (VDW SCALING)     2
Info: USING ARITHMETIC MEAN TO COMBINE L-J SIGMA PARAMETERS
Info: BINARY COORDINATES     mobley_6743808_min.coor
Info: SUMMARY OF PARAMETERS:
Info: 8 BONDS
Info: 7 ANGLES
Info:   7 HARMONIC
Info:   0 COSINE-BASED
Info: 4 DIHEDRAL
Info: 0 IMPROPER
Info: 0 CROSSTERM
Info: 0 VDW
Info: 28 VDW_PAIRS
Info: 0 NBTHOLE_PAIRS
Info: STRUCTURE SUMMARY:
Info: 2947 ATOMS
Info: 2947 BONDS
Info: 31 ANGLES
Info: 44 DIHEDRALS
Info: 0 IMPROPERS
Info: 0 CROSSTERMS
Info: 3013 EXCLUSIONS
Info: 19 FIXED ATOMS
Info: 2938 RIGID BONDS
Info: 10 RIGID BONDS BETWEEN FIXED ATOMS
Info: 5856 DEGREES OF FREEDOM
Info: 985 HYDROGEN GROUPS
Info: 4 ATOMS IN LARGEST HYDROGEN GROUP
Info: 985 MIGRATION GROUPS
Info: 4 ATOMS IN LARGEST MIGRATION GROUP
Info: 9 HYDROGEN GROUPS WITH ALL ATOMS FIXED
Info: TOTAL MASS = 17705.8 amu
Info: TOTAL CHARGE = -1.11759e-08 e
Info: MASS DENSITY = 0.654039 g/cm^3
Info: ATOM DENSITY = 0.0655556 atoms/A^3
Info: ADDED 0 IMPLICIT EXCLUSIONS
Info: NONBONDED TABLE R-SQUARED SPACING: 0.0625
Info: NONBONDED TABLE SIZE: 705 POINTS
Info: REMOVING COM VELOCITY 0.0419924 0.0508091 0.166027
TCL: Running for 100000 steps
ETITLE: TS BOND ANGLE DIHED IMPRP ELECT VDW BOUNDARY MISC KINETIC TOTAL TEMP POTENTIAL TOTAL3 TEMPAVG PRESSURE GPRESSURE VOLUME PRESSAVG GPRESSAVG
ENERGY: 0 0.0000 0.0000 0.0000 0.0000 -13642.2491 2385.3597 0.0000 0.0000 1756.0448 -9500.8446 301.8039 -11256.8894 -9500.4874 301.8039 385.3653 419.4140 44954.2288 385.3653 419.4140
ENERGY: 100000 0.0000 0.0000 0.0000 0.0000 -14112.4437 2354.2080 0.0000 0.0000 168.3738 -11589.8618 28.9377 -11758.2356 -11589.3146 30.9189 -732.7885 -672.7285 28594.1490 4.0454 4.0660
TCL: Running 100000 steps at 60 kelvin.
TCL: Setting parameter langevinTemp to 60
TCL: Running for 100000 steps
ETITLE: TS BOND ANGLE DIHED IMPRP ELECT VDW BOUNDARY MISC KINETIC TOTAL TEMP POTENTIAL TOTAL3 TEMPAVG PRESSURE GPRESSURE VOLUME PRESSAVG GPRESSAVG
ENERGY: 100000 0.0000 0.0000 0.0000 0.0000 -14112.4437 2354.2080 0.0000 0.0000 168.2857 -11589.9499 28.9226 -11758.2356 -11589.5456 28.9226 -732.1629 -672.6932 28594.1490 -732.1629 -672.6932
ENERGY: 200000 0.0000 0.0000 0.0000 0.0000 -14098.2998 2396.1680 0.0000 0.0000 339.5848 -11362.5470 58.3630 -11702.1318 -11361.5453 59.9473 -357.4632 -286.7320 28700.1614 4.9372 4.9205
TCL: Running 100000 steps at 90 kelvin.
TCL: Setting parameter langevinTemp to 90
TCL: Running for 100000 steps
ETITLE: TS BOND ANGLE DIHED IMPRP ELECT VDW BOUNDARY MISC KINETIC TOTAL TEMP POTENTIAL TOTAL3 TEMPAVG PRESSURE GPRESSURE VOLUME PRESSAVG GPRESSAVG
ENERGY: 200000 0.0000 0.0000 0.0000 0.0000 -14098.2998 2396.1680 0.0000 0.0000 339.4102 -11362.7216 58.3330 -11702.1318 -11362.1617 58.3330 -338.4104 -286.2991 28700.1614 -338.4104 -286.2991
ENERGY: 300000 0.0000 0.0000 0.0000 0.0000 -13933.2051 2320.6653 0.0000 0.0000 542.8626 -11069.6771 93.2995 -11612.5398 -11068.0167 90.1687 -335.7860 -275.4609 28236.4551 4.3485 4.3629
TCL: Running 100000 steps at 120 kelvin.
TCL: Setting parameter langevinTemp to 120
TCL: Running for 100000 steps
ETITLE: TS BOND ANGLE DIHED IMPRP ELECT VDW BOUNDARY MISC KINETIC TOTAL TEMP POTENTIAL TOTAL3 TEMPAVG PRESSURE GPRESSURE VOLUME PRESSAVG GPRESSAVG
ENERGY: 300000 0.0000 0.0000 0.0000 0.0000 -13933.2051 2320.6653 0.0000 0.0000 542.6033 -11069.9365 93.2549 -11612.5398 -11068.6602 93.2549 -312.6761 -275.2995 28236.4551 -312.6761 -275.2995
ENERGY: 400000 0.0000 0.0000 0.0000 0.0000 -13663.7556 2231.1933 0.0000 0.0000 730.0355 -10702.5268 125.4681 -11432.5623 -10701.6975 119.9910 -317.1077 -282.4457 28372.0891 2.4758 2.4512
TCL: Running 100000 steps at 150 kelvin.
TCL: Setting parameter langevinTemp to 150
TCL: Running for 100000 steps
ETITLE: TS BOND ANGLE DIHED IMPRP ELECT VDW BOUNDARY MISC KINETIC TOTAL TEMP POTENTIAL TOTAL3 TEMPAVG PRESSURE GPRESSURE VOLUME PRESSAVG GPRESSAVG
ENERGY: 400000 0.0000 0.0000 0.0000 0.0000 -13663.7556 2231.1933 0.0000 0.0000 729.6964 -10702.8659 125.4098 -11432.5623 -10701.6135 125.4098 -335.6388 -282.8120 28372.0891 -335.6388 -282.8120
ENERGY: 500000 0.0000 0.0000 0.0000 0.0000 -13502.3703 2209.4016 0.0000 0.0000 866.8264 -10426.1424 148.9778 -11292.9688 -10423.9174 150.0699 -299.5908 -234.0530 28744.6516 2.3511 2.4531
TCL: Running 100000 steps at 180 kelvin.
TCL: Setting parameter langevinTemp to 180
TCL: Running for 100000 steps
ETITLE: TS BOND ANGLE DIHED IMPRP ELECT VDW BOUNDARY MISC KINETIC TOTAL TEMP POTENTIAL TOTAL3 TEMPAVG PRESSURE GPRESSURE VOLUME PRESSAVG GPRESSAVG
ENERGY: 500000 0.0000 0.0000 0.0000 0.0000 -13502.3703 2209.4016 0.0000 0.0000 866.3781 -10426.5907 148.9007 -11292.9688 -10425.2650 148.9007 -299.5664 -233.6507 28744.6516 -299.5664 -233.6507
ENERGY: 600000 0.0000 0.0000 0.0000 0.0000 -13104.1784 2095.6339 0.0000 0.0000 1030.2464 -9978.2981 177.0641 -11008.5445 -9975.4976 180.2202 -217.3522 -165.4419 28889.5763 3.7196 3.7518
TCL: Running 100000 steps at 210 kelvin.
TCL: Setting parameter langevinTemp to 210
TCL: Running for 100000 steps
ETITLE: TS BOND ANGLE DIHED IMPRP ELECT VDW BOUNDARY MISC KINETIC TOTAL TEMP POTENTIAL TOTAL3 TEMPAVG PRESSURE GPRESSURE VOLUME PRESSAVG GPRESSAVG
ENERGY: 600000 0.0000 0.0000 0.0000 0.0000 -13104.1784 2095.6339 0.0000 0.0000 1029.7027 -9978.8418 176.9706 -11008.5445 -9977.1420 176.9706 -225.3224 -164.7757 28889.5763 -225.3224 -164.7757
ENERGY: 700000 0.0000 0.0000 0.0000 0.0000 -12449.7597 1921.2012 0.0000 0.0000 1254.1746 -9274.3838 215.5497 -10528.5584 -9272.5085 209.4418 204.1149 301.4454 28897.8851 3.5131 3.5207
TCL: Running 100000 steps at 240 kelvin.
TCL: Setting parameter langevinTemp to 240
TCL: Running for 100000 steps
ETITLE: TS BOND ANGLE DIHED IMPRP ELECT VDW BOUNDARY MISC KINETIC TOTAL TEMP POTENTIAL TOTAL3 TEMPAVG PRESSURE GPRESSURE VOLUME PRESSAVG GPRESSAVG
ENERGY: 700000 0.0000 0.0000 0.0000 0.0000 -12449.7597 1921.2012 0.0000 0.0000 1253.5758 -9274.9826 215.4467 -10528.5584 -9272.5055 215.4467 223.8831 301.5601 28897.8851 223.8831 301.5601
ENERGY: 800000 0.0000 0.0000 0.0000 0.0000 -11799.0440 1747.5369 0.0000 0.0000 1408.9283 -8642.5788 242.1465 -10051.5071 -8639.8216 239.9048 434.4875 518.3696 29043.9926 3.5625 3.4532
TCL: Running 100000 steps at 270 kelvin.
TCL: Setting parameter langevinTemp to 270
TCL: Running for 100000 steps
ETITLE: TS BOND ANGLE DIHED IMPRP ELECT VDW BOUNDARY MISC KINETIC TOTAL TEMP POTENTIAL TOTAL3 TEMPAVG PRESSURE GPRESSURE VOLUME PRESSAVG GPRESSAVG
ENERGY: 800000 0.0000 0.0000 0.0000 0.0000 -11799.0440 1747.5369 0.0000 0.0000 1408.2568 -8643.2504 242.0311 -10051.5071 -8641.1563 242.0311 436.9832 518.1410 29043.9926 436.9832 518.1410
ENERGY: 900000 0.0000 0.0000 0.0000 0.0000 -11103.2013 1466.3471 0.0000 0.0000 1564.0301 -8072.8241 268.8032 -9636.8541 -8070.0298 270.2116 -867.9771 -794.2590 30101.4314 1.3552 1.2966
TCL: Running 1000000 steps at 300 kelvin.
TCL: Setting parameter langevinTemp to 300
TCL: Running for 1000000 steps
ETITLE: TS BOND ANGLE DIHED IMPRP ELECT VDW BOUNDARY MISC KINETIC TOTAL TEMP POTENTIAL TOTAL3 TEMPAVG PRESSURE GPRESSURE VOLUME PRESSAVG GPRESSAVG
ENERGY: 900000 0.0000 0.0000 0.0000 0.0000 -11103.2013 1466.3471 0.0000 0.0000 1563.2150 -8073.6391 268.6631 -9636.8541 -8070.9507 268.6631 -886.2749 -794.6237 30101.4314 -886.2749 -794.6237
ENERGY: 1100000 0.0000 0.0000 0.0000 0.0000 -10690.0779 1383.5964 0.0000 0.0000 1794.7772 -7511.7042 308.4607 -9306.4814 -7507.9581 300.1829 -481.3777 -393.1227 30277.3434 4.2721 4.1930
ENERGY: 1300000 0.0000 0.0000 0.0000 0.0000 -10671.1882 1435.4975 0.0000 0.0000 1768.9684 -7466.7223 304.0251 -9235.6907 -7462.0344 300.1468 59.6648 86.3196 30606.4806 4.4917 4.5631
ENERGY: 1500000 0.0000 0.0000 0.0000 0.0000 -10632.3150 1408.8134 0.0000 0.0000 1716.5849 -7506.9168 295.0221 -9223.5016 -7505.4525 300.8458 -154.3078 -105.2027 30484.2230 2.6539 2.7356
ENERGY: 1700000 0.0000 0.0000 0.0000 0.0000 -10792.4427 1453.8716 0.0000 0.0000 1737.0013 -7601.5697 298.5310 -9338.5711 -7597.8481 300.4429 27.9039 132.6049 30116.4798 3.8350 3.9752
ENERGY: 1900000 0.0000 0.0000 0.0000 0.0000 -10790.9301 1464.7210 0.0000 0.0000 1760.1271 -7566.0820 302.5055 -9326.2091 -7563.2281 300.3074 191.2081 307.9706 30137.1046 3.8707 3.9366
TCL: Exiting due to exit command.
