Info: SIMULATION PARAMETERS:
Info: TIMESTEP               2
Info: NUMBER OF STEPS        0
Info: STEPS PER CYCLE        10
Info: PERIODIC CELL BASIS 1  36.281 0 0
Info: PERIODIC CELL BASIS 2  0 35.267 0
Info: PERIODIC CELL BASIS 3  0 0 34.954
Info: PERIODIC CELL CENTER   0 0 0
Info: WRAPPING WATERS AROUND PERIODIC BOUNDARIES ON OUTPUT.
Info: WRAPPING ALL CLUSTERS AROUND PERIODIC BOUNDARIES ON OUTPUT.
Info: FIRST LDB TIMESTEP     50
Info: LAST LDB TIMESTEP     -1
Info: HOM BACKGROUND SCALING 1
Info: PME BACKGROUND SCALING 1
Info: MIN ATOMS PER PATCH    40
Info: EMPTY PATCH LOAD       40 ATOMS
Info: INITIAL TEMPERATURE    300
Info: CENTER OF MASS MOVING INITIALLY? NO
Info: DIELECTRIC             1
Info: EXCLUDE                SCALED ONE-FOUR
Info: 1-4 ELECTROSTATICS SCALED BY 0.833333
Info: MODIFIED 1-4 VDW PARAMETERS WILL BE USED
Info: DCD FILENAME           mobley_4434915_equil.dcd
Info: DCD FREQUENCY          100000
Info: DCD FIRST STEP         100000
Info: DCD FILE WILL CONTAIN UNIT CELL DATA
Info: XST FILENAME           mobley_4434915_equil.xst
Info: XST FREQUENCY          100000
Info: NO VELOCITY DCD OUTPUT
Info: NO FORCE DCD OUTPUT
Info: OUTPUT FILENAME        mobley_4434915_equil
Info: BINARY OUTPUT FILES WILL BE USED
Info: RESTART FILENAME       mobley_4434915_equil.restart
Info: RESTART FREQUENCY      100000
Info: BINARY RESTART FILES WILL BE USED
Info: CUTOFF                 9
Info: PAIRLIST DISTANCE      11
Info: PAIRLIST SHRINK RATE   0.01
Info: PAIRLIST GROW RATE     0.01
Info: PAIRLIST TRIGGER       0.3
Info: PAIRLISTS PER CYCLE    2
Info: PAIRLISTS ENABLED
Info: MARGIN                 8
Info: HYDROGEN GROUP CUTOFF  2.5
Info: PATCH DIMENSION        21.5
Info: ENERGY OUTPUT STEPS    100000
Info: ENERGY EVALUATION STEPS    100000
Info: OUTPUT ENERGY PRECISION 4
Info: CROSSTERM ENERGY INCLUDED IN DIHEDRAL
Info: TIMING OUTPUT STEPS    1000000
Info: PRESSURE OUTPUT STEPS  100000
Info: FIXED ATOMS ACTIVE
Info: LANGEVIN DYNAMICS ACTIVE
Info: LANGEVIN TEMPERATURE   30
Info: LANGEVIN USING BBK INTEGRATOR
Info: LANGEVIN DAMPING COEFFICIENT IS 1 INVERSE PS
Info: LANGEVIN DYNAMICS APPLIED TO HYDROGENS
Info: LANGEVIN PISTON PRESSURE CONTROL ACTIVE
Info:        TARGET PRESSURE IS 1.01325 BAR
Info:     OSCILLATION PERIOD IS 50 FS
Info:             DECAY TIME IS 25 FS
Info:     PISTON TEMPERATURE IS 300 K
Info:       PRESSURE CONTROL IS GROUP-BASED
Info:    INITIAL STRAIN RATE IS 0 0 0
Info:       CELL FLUCTUATION IS ISOTROPIC
Info: PARTICLE MESH EWALD (PME) ACTIVE
Info: PME TOLERANCE               1e-06
Info: PME EWALD COEFFICIENT       0.348832
Info: PME INTERPOLATION ORDER     4
Info: PME GRID DIMENSIONS         40 36 36
Info: PME MAXIMUM GRID SPACING    1
Info: FULL ELECTROSTATIC EVALUATION FREQUENCY      2
Info: USING VERLET I (r-RESPA) MTS SCHEME.
Info: C1 SPLITTING OF LONG RANGE ELECTROSTATICS
Info: PLACING ATOMS IN PATCHES BY HYDROGEN GROUPS
Info: RIGID BONDS TO HYDROGEN : ALL
Info:         ERROR TOLERANCE : 1e-08
Info:          MAX ITERATIONS : 100
Info: RIGID WATER USING SETTLE ALGORITHM
Info: RANDOM NUMBER SEED     1743673971
Info: USE HYDROGEN BONDS?    NO
Info: Using AMBER format force field!
Info: AMBER PARM FILE        mobley_4434915.prmtop
Info: COORDINATE PDB         mobley_4434915.pdb
Info: Exclusions will be read from PARM file!
Info: SCNB (VDW SCALING)     2
Info: USING ARITHMETIC MEAN TO COMBINE L-J SIGMA PARAMETERS
Info: BINARY COORDINATES     mobley_4434915_min.coor
Info: SUMMARY OF PARAMETERS:
Info: 4 BONDS
Info: 2 ANGLES
Info:   2 HARMONIC
Info:   0 COSINE-BASED
Info: 0 DIHEDRAL
Info: 0 IMPROPER
Info: 0 CROSSTERM
Info: 0 VDW
Info: 15 VDW_PAIRS
Info: 0 NBTHOLE_PAIRS
Info: STRUCTURE SUMMARY:
Info: 2972 ATOMS
Info: 2971 BONDS
Info: 6 ANGLES
Info: 0 DIHEDRALS
Info: 0 IMPROPERS
Info: 0 CROSSTERMS
Info: 2977 EXCLUSIONS
Info: 5 FIXED ATOMS
Info: 2970 RIGID BONDS
Info: 3 RIGID BONDS BETWEEN FIXED ATOMS
Info: 5934 DEGREES OF FREEDOM
Info: 991 HYDROGEN GROUPS
Info: 4 ATOMS IN LARGEST HYDROGEN GROUP
Info: 991 MIGRATION GROUPS
Info: 4 ATOMS IN LARGEST MIGRATION GROUP
Info: 2 HYDROGEN GROUPS WITH ALL ATOMS FIXED
Info: TOTAL MASS = 17868.3 amu
Info: TOTAL CHARGE = -0.000100018 e
Info: MASS DENSITY = 0.663434 g/cm^3
Info: ATOM DENSITY = 0.0664514 atoms/A^3
Info: ADDED 0 IMPLICIT EXCLUSIONS
Info: NONBONDED TABLE R-SQUARED SPACING: 0.0625
Info: NONBONDED TABLE SIZE: 705 POINTS
Info: REMOVING COM VELOCITY 0.0591531 0.168378 0.149278
TCL: Running for 100000 steps
ETITLE: TS BOND ANGLE DIHED IMPRP ELECT VDW BOUNDARY MISC KINETIC TOTAL TEMP POTENTIAL TOTAL3 TEMPAVG PRESSURE GPRESSURE VOLUME PRESSAVG GPRESSAVG
ENERGY: 0 0.0000 0.0000 0.0000 0.0000 -13801.7923 2449.1108 0.0000 0.0000 1725.5945 -9627.0870 292.6723 -11352.6815 -9626.7368 292.6723 573.4205 610.0669 44724.4129 573.4205 610.0669
ENERGY: 100000 0.0000 0.0000 0.0000 0.0000 -14528.5359 2647.0326 0.0000 0.0000 181.4430 -11700.0603 30.7739 -11881.5033 -11699.7778 30.9018 1028.2639 1085.6821 29161.5577 3.6917 3.7295
TCL: Running 100000 steps at 60 kelvin.
TCL: Setting parameter langevinTemp to 60
TCL: Running for 100000 steps
ETITLE: TS BOND ANGLE DIHED IMPRP ELECT VDW BOUNDARY MISC KINETIC TOTAL TEMP POTENTIAL TOTAL3 TEMPAVG PRESSURE GPRESSURE VOLUME PRESSAVG GPRESSAVG
ENERGY: 100000 0.0000 0.0000 0.0000 0.0000 -14528.5359 2647.0326 0.0000 0.0000 181.3601 -11700.1432 30.7599 -11881.5033 -11699.9246 30.7599 1032.3220 1085.7350 29161.5577 1032.3220 1085.7350
ENERGY: 200000 0.0000 0.0000 0.0000 0.0000 -14126.3660 2359.8036 0.0000 0.0000 364.5690 -11401.9934 61.8333 -11766.5624 -11400.8706 59.8436 -882.8607 -831.4713 29458.7758 3.7930 3.7906
TCL: Running 100000 steps at 90 kelvin.
TCL: Setting parameter langevinTemp to 90
TCL: Running for 100000 steps
ETITLE: TS BOND ANGLE DIHED IMPRP ELECT VDW BOUNDARY MISC KINETIC TOTAL TEMP POTENTIAL TOTAL3 TEMPAVG PRESSURE GPRESSURE VOLUME PRESSAVG GPRESSAVG
ENERGY: 200000 0.0000 0.0000 0.0000 0.0000 -14126.3660 2359.8036 0.0000 0.0000 364.3941 -11402.1683 61.8037 -11766.5624 -11401.4249 61.8037 -890.7947 -831.1281 29458.7758 -890.7947 -831.1281
ENERGY: 300000 0.0000 0.0000 0.0000 0.0000 -13909.0600 2254.7788 0.0000 0.0000 536.6714 -11117.6098 91.0230 -11654.2813 -11116.4264 89.7626 -1203.2151 -1116.3532 29259.0381 5.1155 5.0286
TCL: Running 100000 steps at 120 kelvin.
TCL: Setting parameter langevinTemp to 120
TCL: Running for 100000 steps
ETITLE: TS BOND ANGLE DIHED IMPRP ELECT VDW BOUNDARY MISC KINETIC TOTAL TEMP POTENTIAL TOTAL3 TEMPAVG PRESSURE GPRESSURE VOLUME PRESSAVG GPRESSAVG
ENERGY: 300000 0.0000 0.0000 0.0000 0.0000 -13909.0600 2254.7788 0.0000 0.0000 536.4065 -11117.8747 90.9781 -11654.2813 -11116.5338 90.9781 -1168.4620 -1116.3767 29259.0381 -1168.4620 -1116.3767
ENERGY: 400000 0.0000 0.0000 0.0000 0.0000 -13894.9575 2335.1136 0.0000 0.0000 712.4498 -10847.3941 120.8362 -11559.8439 -10844.9390 119.8131 -369.5857 -332.2279 29513.1083 3.1890 3.3835
TCL: Running 100000 steps at 150 kelvin.
TCL: Setting parameter langevinTemp to 150
TCL: Running for 100000 steps
ETITLE: TS BOND ANGLE DIHED IMPRP ELECT VDW BOUNDARY MISC KINETIC TOTAL TEMP POTENTIAL TOTAL3 TEMPAVG PRESSURE GPRESSURE VOLUME PRESSAVG GPRESSAVG
ENERGY: 400000 0.0000 0.0000 0.0000 0.0000 -13894.9575 2335.1136 0.0000 0.0000 712.1070 -10847.7368 120.7781 -11559.8439 -10846.4770 120.7781 -376.0456 -331.3050 29513.1083 -376.0456 -331.3050
ENERGY: 500000 0.0000 0.0000 0.0000 0.0000 -13670.3096 2302.7512 0.0000 0.0000 906.9316 -10460.6268 153.8216 -11367.5584 -10457.6479 149.8862 112.7198 226.6582 29268.8461 3.4644 3.3590
TCL: Running 100000 steps at 180 kelvin.
TCL: Setting parameter langevinTemp to 180
TCL: Running for 100000 steps
ETITLE: TS BOND ANGLE DIHED IMPRP ELECT VDW BOUNDARY MISC KINETIC TOTAL TEMP POTENTIAL TOTAL3 TEMPAVG PRESSURE GPRESSURE VOLUME PRESSAVG GPRESSAVG
ENERGY: 500000 0.0000 0.0000 0.0000 0.0000 -13670.3096 2302.7512 0.0000 0.0000 906.5028 -10461.0556 153.7489 -11367.5584 -10459.2143 153.7489 170.3545 227.3235 29268.8461 170.3545 227.3235
ENERGY: 600000 0.0000 0.0000 0.0000 0.0000 -13166.9656 2110.5912 0.0000 0.0000 1079.6686 -9976.7059 183.1190 -11056.3744 -9974.3241 179.8406 -165.0026 -166.9419 29224.3037 2.6219 2.6591
TCL: Running 100000 steps at 210 kelvin.
TCL: Setting parameter langevinTemp to 210
TCL: Running for 100000 steps
ETITLE: TS BOND ANGLE DIHED IMPRP ELECT VDW BOUNDARY MISC KINETIC TOTAL TEMP POTENTIAL TOTAL3 TEMPAVG PRESSURE GPRESSURE VOLUME PRESSAVG GPRESSAVG
ENERGY: 600000 0.0000 0.0000 0.0000 0.0000 -13166.9656 2110.5912 0.0000 0.0000 1079.1335 -9977.2409 183.0282 -11056.3744 -9975.4109 183.0282 -232.0484 -168.4866 29224.3037 -232.0484 -168.4866
ENERGY: 700000 0.0000 0.0000 0.0000 0.0000 -12525.8246 1917.2721 0.0000 0.0000 1216.7923 -9391.7602 206.3761 -10608.5525 -9388.4217 209.6990 106.3760 149.2597 28932.4820 4.3497 4.2398
TCL: Running 100000 steps at 240 kelvin.
TCL: Setting parameter langevinTemp to 240
TCL: Running for 100000 steps
ETITLE: TS BOND ANGLE DIHED IMPRP ELECT VDW BOUNDARY MISC KINETIC TOTAL TEMP POTENTIAL TOTAL3 TEMPAVG PRESSURE GPRESSURE VOLUME PRESSAVG GPRESSAVG
ENERGY: 700000 0.0000 0.0000 0.0000 0.0000 -12525.8246 1917.2721 0.0000 0.0000 1216.1854 -9392.3671 206.2731 -10608.5525 -9390.0059 206.2731 76.9837 149.8872 28932.4820 76.9837 149.8872
ENERGY: 800000 0.0000 0.0000 0.0000 0.0000 -11777.2629 1604.4038 0.0000 0.0000 1426.0083 -8746.8508 241.8605 -10172.8591 -8743.9828 239.5041 -1018.1711 -918.4609 29272.8125 4.1532 4.0880
TCL: Running 100000 steps at 270 kelvin.
TCL: Setting parameter langevinTemp to 270
TCL: Running for 100000 steps
ETITLE: TS BOND ANGLE DIHED IMPRP ELECT VDW BOUNDARY MISC KINETIC TOTAL TEMP POTENTIAL TOTAL3 TEMPAVG PRESSURE GPRESSURE VOLUME PRESSAVG GPRESSAVG
ENERGY: 800000 0.0000 0.0000 0.0000 0.0000 -11777.2629 1604.4038 0.0000 0.0000 1425.3317 -8747.5274 241.7457 -10172.8591 -8744.8247 241.7457 -1000.7293 -921.1883 29272.8125 -1000.7293 -921.1883
ENERGY: 900000 0.0000 0.0000 0.0000 0.0000 -11323.4925 1597.9602 0.0000 0.0000 1597.9227 -8127.6097 271.0183 -9725.5323 -8124.5592 270.1532 317.9266 368.1618 29742.9917 2.7818 2.7998
TCL: Running 1000000 steps at 300 kelvin.
TCL: Setting parameter langevinTemp to 300
TCL: Running for 1000000 steps
ETITLE: TS BOND ANGLE DIHED IMPRP ELECT VDW BOUNDARY MISC KINETIC TOTAL TEMP POTENTIAL TOTAL3 TEMPAVG PRESSURE GPRESSURE VOLUME PRESSAVG GPRESSAVG
ENERGY: 900000 0.0000 0.0000 0.0000 0.0000 -11323.4925 1597.9602 0.0000 0.0000 1597.1408 -8128.3915 270.8857 -9725.5323 -8125.7532 270.8857 288.3227 367.3702 29742.9917 288.3227 367.3702
ENERGY: 1100000 0.0000 0.0000 0.0000 0.0000 -10831.8002 1448.5834 0.0000 0.0000 1783.6681 -7599.5487 302.5220 -9383.2168 -7597.0769 299.7645 171.3117 273.4401 30243.1406 5.2796 4.9652
ENERGY: 1300000 0.0000 0.0000 0.0000 0.0000 -10878.1383 1442.5421 0.0000 0.0000 1751.8063 -7683.7899 297.1180 -9435.5962 -7681.0284 299.6800 -533.6750 -416.8476 30831.5931 2.4180 2.1961
ENERGY: 1500000 0.0000 0.0000 0.0000 0.0000 -10800.9542 1441.0426 0.0000 0.0000 1749.7387 -7610.1729 296.7673 -9359.9116 -7605.2730 300.2430 -222.7995 -167.6589 30778.8616 2.9447 2.9621
ENERGY: 1700000 0.0000 0.0000 0.0000 0.0000 -10924.5645 1530.8378 0.0000 0.0000 1755.9987 -7637.7280 297.8290 -9393.7267 -7634.0036 300.0988 558.8116 651.9619 30243.3057 2.2130 2.2842
ENERGY: 1900000 0.0000 0.0000 0.0000 0.0000 -10782.1465 1387.3151 0.0000 0.0000 1791.5924 -7603.2390 303.8660 -9394.8314 -7600.3054 300.0551 -714.7665 -603.3169 30740.7491 2.7955 2.6445
TCL: Exiting due to exit command.
