Info: SIMULATION PARAMETERS:
Info: TIMESTEP               2
Info: NUMBER OF STEPS        0
Info: STEPS PER CYCLE        10
Info: PERIODIC CELL BASIS 1  36.592 0 0
Info: PERIODIC CELL BASIS 2  0 35.779 0
Info: PERIODIC CELL BASIS 3  0 0 34.471
Info: PERIODIC CELL CENTER   0 0 0
Info: WRAPPING WATERS AROUND PERIODIC BOUNDARIES ON OUTPUT.
Info: WRAPPING ALL CLUSTERS AROUND PERIODIC BOUNDARIES ON OUTPUT.
Info: FIRST LDB TIMESTEP     50
Info: LAST LDB TIMESTEP     -1
Info: HOM BACKGROUND SCALING 1
Info: PME BACKGROUND SCALING 1
Info: MIN ATOMS PER PATCH    40
Info: EMPTY PATCH LOAD       40 ATOMS
Info: INITIAL TEMPERATURE    300
Info: CENTER OF MASS MOVING INITIALLY? NO
Info: DIELECTRIC             1
Info: EXCLUDE                SCALED ONE-FOUR
Info: 1-4 ELECTROSTATICS SCALED BY 0.833333
Info: MODIFIED 1-4 VDW PARAMETERS WILL BE USED
Info: DCD FILENAME           mobley_2689721_equil.dcd
Info: DCD FREQUENCY          100000
Info: DCD FIRST STEP         100000
Info: DCD FILE WILL CONTAIN UNIT CELL DATA
Info: XST FILENAME           mobley_2689721_equil.xst
Info: XST FREQUENCY          100000
Info: NO VELOCITY DCD OUTPUT
Info: NO FORCE DCD OUTPUT
Info: OUTPUT FILENAME        mobley_2689721_equil
Info: BINARY OUTPUT FILES WILL BE USED
Info: RESTART FILENAME       mobley_2689721_equil.restart
Info: RESTART FREQUENCY      100000
Info: BINARY RESTART FILES WILL BE USED
Info: CUTOFF                 9
Info: PAIRLIST DISTANCE      11
Info: PAIRLIST SHRINK RATE   0.01
Info: PAIRLIST GROW RATE     0.01
Info: PAIRLIST TRIGGER       0.3
Info: PAIRLISTS PER CYCLE    2
Info: PAIRLISTS ENABLED
Info: MARGIN                 8
Info: HYDROGEN GROUP CUTOFF  2.5
Info: PATCH DIMENSION        21.5
Info: ENERGY OUTPUT STEPS    100000
Info: ENERGY EVALUATION STEPS    100000
Info: OUTPUT ENERGY PRECISION 4
Info: CROSSTERM ENERGY INCLUDED IN DIHEDRAL
Info: TIMING OUTPUT STEPS    1000000
Info: PRESSURE OUTPUT STEPS  100000
Info: FIXED ATOMS ACTIVE
Info: LANGEVIN DYNAMICS ACTIVE
Info: LANGEVIN TEMPERATURE   30
Info: LANGEVIN USING BBK INTEGRATOR
Info: LANGEVIN DAMPING COEFFICIENT IS 1 INVERSE PS
Info: LANGEVIN DYNAMICS APPLIED TO HYDROGENS
Info: LANGEVIN PISTON PRESSURE CONTROL ACTIVE
Info:        TARGET PRESSURE IS 1.01325 BAR
Info:     OSCILLATION PERIOD IS 50 FS
Info:             DECAY TIME IS 25 FS
Info:     PISTON TEMPERATURE IS 300 K
Info:       PRESSURE CONTROL IS GROUP-BASED
Info:    INITIAL STRAIN RATE IS 0 0 0
Info:       CELL FLUCTUATION IS ISOTROPIC
Info: PARTICLE MESH EWALD (PME) ACTIVE
Info: PME TOLERANCE               1e-06
Info: PME EWALD COEFFICIENT       0.348832
Info: PME INTERPOLATION ORDER     4
Info: PME GRID DIMENSIONS         40 36 36
Info: PME MAXIMUM GRID SPACING    1
Info: FULL ELECTROSTATIC EVALUATION FREQUENCY      2
Info: USING VERLET I (r-RESPA) MTS SCHEME.
Info: C1 SPLITTING OF LONG RANGE ELECTROSTATICS
Info: PLACING ATOMS IN PATCHES BY HYDROGEN GROUPS
Info: RIGID BONDS TO HYDROGEN : ALL
Info:         ERROR TOLERANCE : 1e-08
Info:          MAX ITERATIONS : 100
Info: RIGID WATER USING SETTLE ALGORITHM
Info: RANDOM NUMBER SEED     1743740398
Info: USE HYDROGEN BONDS?    NO
Info: Using AMBER format force field!
Info: AMBER PARM FILE        mobley_2689721.prmtop
Info: COORDINATE PDB         mobley_2689721.pdb
Info: Exclusions will be read from PARM file!
Info: SCNB (VDW SCALING)     2
Info: USING ARITHMETIC MEAN TO COMBINE L-J SIGMA PARAMETERS
Info: BINARY COORDINATES     mobley_2689721_min.coor
Info: SUMMARY OF PARAMETERS:
Info: 4 BONDS
Info: 3 ANGLES
Info:   3 HARMONIC
Info:   0 COSINE-BASED
Info: 5 DIHEDRAL
Info: 0 IMPROPER
Info: 0 CROSSTERM
Info: 0 VDW
Info: 10 VDW_PAIRS
Info: 0 NBTHOLE_PAIRS
Info: STRUCTURE SUMMARY:
Info: 2988 ATOMS
Info: 2988 BONDS
Info: 36 ANGLES
Info: 66 DIHEDRALS
Info: 0 IMPROPERS
Info: 0 CROSSTERMS
Info: 3075 EXCLUSIONS
Info: 18 FIXED ATOMS
Info: 2982 RIGID BONDS
Info: 12 RIGID BONDS BETWEEN FIXED ATOMS
Info: 5940 DEGREES OF FREEDOM
Info: 996 HYDROGEN GROUPS
Info: 3 ATOMS IN LARGEST HYDROGEN GROUP
Info: 996 MIGRATION GROUPS
Info: 3 ATOMS IN LARGEST MIGRATION GROUP
Info: 6 HYDROGEN GROUPS WITH ALL ATOMS FIXED
Info: TOTAL MASS = 17920 amu
Info: TOTAL CHARGE = 0.000499971 e
Info: MASS DENSITY = 0.65937 g/cm^3
Info: ATOM DENSITY = 0.0662083 atoms/A^3
Info: ADDED 0 IMPLICIT EXCLUSIONS
Info: NONBONDED TABLE R-SQUARED SPACING: 0.0625
Info: NONBONDED TABLE SIZE: 705 POINTS
Info: REMOVING COM VELOCITY 0.136146 -0.00318171 -0.180162
TCL: Running for 100000 steps
ETITLE: TS BOND ANGLE DIHED IMPRP ELECT VDW BOUNDARY MISC KINETIC TOTAL TEMP POTENTIAL TOTAL3 TEMPAVG PRESSURE GPRESSURE VOLUME PRESSAVG GPRESSAVG
ENERGY: 0 0.0000 0.0000 0.0000 0.0000 -13802.9563 2447.1701 0.0000 0.0000 1744.3545 -9611.4318 295.5553 -11355.7863 -9611.0877 295.5553 579.0269 605.7739 45130.3008 579.0269 605.7739
ENERGY: 100000 0.0000 0.0000 0.0000 0.0000 -14349.9887 2509.3739 0.0000 0.0000 175.4183 -11665.1965 29.7221 -11840.6148 -11665.0179 30.8543 246.1513 315.6899 29201.1496 3.6624 3.7158
TCL: Running 100000 steps at 60 kelvin.
TCL: Setting parameter langevinTemp to 60
TCL: Running for 100000 steps
ETITLE: TS BOND ANGLE DIHED IMPRP ELECT VDW BOUNDARY MISC KINETIC TOTAL TEMP POTENTIAL TOTAL3 TEMPAVG PRESSURE GPRESSURE VOLUME PRESSAVG GPRESSAVG
ENERGY: 100000 0.0000 0.0000 0.0000 0.0000 -14349.9887 2509.3739 0.0000 0.0000 175.3256 -11665.2892 29.7063 -11840.6148 -11664.9364 29.7063 251.8694 315.4674 29201.1496 251.8694 315.4674
ENERGY: 200000 0.0000 0.0000 0.0000 0.0000 -14235.0564 2421.9929 0.0000 0.0000 357.5842 -11455.4792 60.5874 -11813.0634 -11454.6809 59.8553 -194.6489 -147.5248 28827.3009 2.8884 2.9161
TCL: Running 100000 steps at 90 kelvin.
TCL: Setting parameter langevinTemp to 90
TCL: Running for 100000 steps
ETITLE: TS BOND ANGLE DIHED IMPRP ELECT VDW BOUNDARY MISC KINETIC TOTAL TEMP POTENTIAL TOTAL3 TEMPAVG PRESSURE GPRESSURE VOLUME PRESSAVG GPRESSAVG
ENERGY: 200000 0.0000 0.0000 0.0000 0.0000 -14235.0564 2421.9929 0.0000 0.0000 357.4179 -11455.6455 60.5592 -11813.0634 -11454.9260 60.5592 -202.6471 -147.4545 28827.3009 -202.6471 -147.4545
ENERGY: 300000 0.0000 0.0000 0.0000 0.0000 -14149.7984 2469.5725 0.0000 0.0000 532.5763 -11147.6496 90.2372 -11680.2259 -11145.6004 89.8867 633.4316 679.1851 28885.8236 4.4557 4.4309
TCL: Running 100000 steps at 120 kelvin.
TCL: Setting parameter langevinTemp to 120
TCL: Running for 100000 steps
ETITLE: TS BOND ANGLE DIHED IMPRP ELECT VDW BOUNDARY MISC KINETIC TOTAL TEMP POTENTIAL TOTAL3 TEMPAVG PRESSURE GPRESSURE VOLUME PRESSAVG GPRESSAVG
ENERGY: 300000 0.0000 0.0000 0.0000 0.0000 -14149.7984 2469.5725 0.0000 0.0000 532.2954 -11147.9305 90.1896 -11680.2259 -11146.7434 90.1896 622.1801 679.5718 28885.8236 622.1801 679.5718
ENERGY: 400000 0.0000 0.0000 0.0000 0.0000 -13927.3034 2353.6535 0.0000 0.0000 709.7022 -10863.9477 120.2486 -11573.6499 -10861.2996 119.7102 -12.3629 45.3414 29138.0610 3.3006 3.2883
TCL: Running 100000 steps at 150 kelvin.
TCL: Setting parameter langevinTemp to 150
TCL: Running for 100000 steps
ETITLE: TS BOND ANGLE DIHED IMPRP ELECT VDW BOUNDARY MISC KINETIC TOTAL TEMP POTENTIAL TOTAL3 TEMPAVG PRESSURE GPRESSURE VOLUME PRESSAVG GPRESSAVG
ENERGY: 400000 0.0000 0.0000 0.0000 0.0000 -13927.3034 2353.6535 0.0000 0.0000 709.3548 -10864.2951 120.1898 -11573.6499 -10863.0864 120.1898 -6.0088 46.1431 29138.0610 -6.0088 46.1431
ENERGY: 500000 0.0000 0.0000 0.0000 0.0000 -13593.6238 2217.1351 0.0000 0.0000 881.9244 -10494.5642 149.4291 -11376.4886 -10493.1362 150.0450 -445.8130 -378.0248 29230.8790 4.2952 4.3264
TCL: Running 100000 steps at 180 kelvin.
TCL: Setting parameter langevinTemp to 180
TCL: Running for 100000 steps
ETITLE: TS BOND ANGLE DIHED IMPRP ELECT VDW BOUNDARY MISC KINETIC TOTAL TEMP POTENTIAL TOTAL3 TEMPAVG PRESSURE GPRESSURE VOLUME PRESSAVG GPRESSAVG
ENERGY: 500000 0.0000 0.0000 0.0000 0.0000 -13593.6238 2217.1351 0.0000 0.0000 881.4755 -10495.0132 149.3531 -11376.4886 -10493.0018 149.3531 -426.1003 -377.8550 29230.8790 -426.1003 -377.8550
ENERGY: 600000 0.0000 0.0000 0.0000 0.0000 -13203.6483 2132.4949 0.0000 0.0000 1033.6877 -10037.4656 175.1432 -11071.1533 -10034.6142 179.7676 -60.5961 17.3048 29322.9066 4.2246 4.1858
TCL: Running 100000 steps at 210 kelvin.
TCL: Setting parameter langevinTemp to 210
TCL: Running for 100000 steps
ETITLE: TS BOND ANGLE DIHED IMPRP ELECT VDW BOUNDARY MISC KINETIC TOTAL TEMP POTENTIAL TOTAL3 TEMPAVG PRESSURE GPRESSURE VOLUME PRESSAVG GPRESSAVG
ENERGY: 600000 0.0000 0.0000 0.0000 0.0000 -13203.6483 2132.4949 0.0000 0.0000 1033.1697 -10037.9837 175.0554 -11071.1533 -10035.9566 175.0554 -52.1699 18.3734 29322.9066 -52.1699 18.3734
ENERGY: 700000 0.0000 0.0000 0.0000 0.0000 -12619.4165 1988.5174 0.0000 0.0000 1210.4246 -9420.4745 205.0887 -10630.8991 -9417.2927 209.9517 562.8527 669.8186 28987.3436 3.6065 3.6067
TCL: Running 100000 steps at 240 kelvin.
TCL: Setting parameter langevinTemp to 240
TCL: Running for 100000 steps
ETITLE: TS BOND ANGLE DIHED IMPRP ELECT VDW BOUNDARY MISC KINETIC TOTAL TEMP POTENTIAL TOTAL3 TEMPAVG PRESSURE GPRESSURE VOLUME PRESSAVG GPRESSAVG
ENERGY: 700000 0.0000 0.0000 0.0000 0.0000 -12619.4165 1988.5174 0.0000 0.0000 1209.7714 -9421.1277 204.9780 -10630.8991 -9418.8749 204.9780 592.0569 670.2182 28987.3436 592.0569 670.2182
ENERGY: 800000 0.0000 0.0000 0.0000 0.0000 -11979.3187 1757.4523 0.0000 0.0000 1409.3254 -8812.5410 238.7895 -10221.8664 -8808.9920 239.8235 175.0604 281.2697 29293.0249 4.7116 4.6389
TCL: Running 100000 steps at 270 kelvin.
TCL: Setting parameter langevinTemp to 270
TCL: Running for 100000 steps
ETITLE: TS BOND ANGLE DIHED IMPRP ELECT VDW BOUNDARY MISC KINETIC TOTAL TEMP POTENTIAL TOTAL3 TEMPAVG PRESSURE GPRESSURE VOLUME PRESSAVG GPRESSAVG
ENERGY: 800000 0.0000 0.0000 0.0000 0.0000 -11979.3187 1757.4523 0.0000 0.0000 1408.5929 -8813.2735 238.6654 -10221.8664 -8811.1060 238.6654 193.7565 279.6254 29293.0249 193.7565 279.6254
ENERGY: 900000 0.0000 0.0000 0.0000 0.0000 -11378.1839 1584.1437 0.0000 0.0000 1623.7521 -8170.2882 275.1209 -9794.0403 -8167.5871 270.2088 -49.9532 23.3157 29771.9980 3.5678 3.6523
TCL: Running 1000000 steps at 300 kelvin.
TCL: Setting parameter langevinTemp to 300
TCL: Running for 1000000 steps
ETITLE: TS BOND ANGLE DIHED IMPRP ELECT VDW BOUNDARY MISC KINETIC TOTAL TEMP POTENTIAL TOTAL3 TEMPAVG PRESSURE GPRESSURE VOLUME PRESSAVG GPRESSAVG
ENERGY: 900000 0.0000 0.0000 0.0000 0.0000 -11378.1839 1584.1437 0.0000 0.0000 1622.9131 -8171.1271 274.9788 -9794.0403 -8168.2864 274.9788 -73.2005 20.8543 29771.9980 -73.2005 20.8543
ENERGY: 1100000 0.0000 0.0000 0.0000 0.0000 -10748.4673 1405.4465 0.0000 0.0000 1761.5168 -7581.5039 298.4632 -9343.0207 -7576.9138 300.0667 -64.4447 18.3987 30304.6643 2.1291 2.2945
ENERGY: 1300000 0.0000 0.0000 0.0000 0.0000 -10726.9310 1380.7978 0.0000 0.0000 1845.1720 -7500.9612 312.6373 -9346.1332 -7497.6256 299.8943 -465.5016 -442.3469 30867.1481 2.7830 2.8757
ENERGY: 1500000 0.0000 0.0000 0.0000 0.0000 -10806.8993 1476.7882 0.0000 0.0000 1756.1729 -7573.9381 297.5577 -9330.1110 -7569.6950 300.2552 166.1298 254.1180 31070.6166 3.2804 3.2997
ENERGY: 1700000 0.0000 0.0000 0.0000 0.0000 -10688.5678 1345.3756 0.0000 0.0000 1746.4302 -7596.7620 295.9070 -9343.1922 -7592.6372 300.4166 -841.2013 -789.7348 31020.0307 3.4578 3.2205
ENERGY: 1900000 0.0000 0.0000 0.0000 0.0000 -10741.5164 1412.7973 0.0000 0.0000 1692.2330 -7636.4861 286.7240 -9328.7191 -7631.9742 300.0908 -69.3482 -41.8594 30596.9719 3.1883 3.1099
TCL: Exiting due to exit command.
