Info: SIMULATION PARAMETERS:
Info: TIMESTEP               2
Info: NUMBER OF STEPS        0
Info: STEPS PER CYCLE        10
Info: PERIODIC CELL BASIS 1  37.435 0 0
Info: PERIODIC CELL BASIS 2  0 35.411 0
Info: PERIODIC CELL BASIS 3  0 0 31.855
Info: PERIODIC CELL CENTER   0 0 0
Info: WRAPPING WATERS AROUND PERIODIC BOUNDARIES ON OUTPUT.
Info: WRAPPING ALL CLUSTERS AROUND PERIODIC BOUNDARIES ON OUTPUT.
Info: FIRST LDB TIMESTEP     50
Info: LAST LDB TIMESTEP     -1
Info: HOM BACKGROUND SCALING 1
Info: PME BACKGROUND SCALING 1
Info: MIN ATOMS PER PATCH    40
Info: EMPTY PATCH LOAD       40 ATOMS
Info: INITIAL TEMPERATURE    300
Info: CENTER OF MASS MOVING INITIALLY? NO
Info: DIELECTRIC             1
Info: EXCLUDE                SCALED ONE-FOUR
Info: 1-4 ELECTROSTATICS SCALED BY 0.833333
Info: MODIFIED 1-4 VDW PARAMETERS WILL BE USED
Info: DCD FILENAME           mobley_2727678_equil.dcd
Info: DCD FREQUENCY          100000
Info: DCD FIRST STEP         100000
Info: DCD FILE WILL CONTAIN UNIT CELL DATA
Info: XST FILENAME           mobley_2727678_equil.xst
Info: XST FREQUENCY          100000
Info: NO VELOCITY DCD OUTPUT
Info: NO FORCE DCD OUTPUT
Info: OUTPUT FILENAME        mobley_2727678_equil
Info: BINARY OUTPUT FILES WILL BE USED
Info: RESTART FILENAME       mobley_2727678_equil.restart
Info: RESTART FREQUENCY      100000
Info: BINARY RESTART FILES WILL BE USED
Info: CUTOFF                 9
Info: PAIRLIST DISTANCE      11
Info: PAIRLIST SHRINK RATE   0.01
Info: PAIRLIST GROW RATE     0.01
Info: PAIRLIST TRIGGER       0.3
Info: PAIRLISTS PER CYCLE    2
Info: PAIRLISTS ENABLED
Info: MARGIN                 8
Info: HYDROGEN GROUP CUTOFF  2.5
Info: PATCH DIMENSION        21.5
Info: ENERGY OUTPUT STEPS    100000
Info: ENERGY EVALUATION STEPS    100000
Info: OUTPUT ENERGY PRECISION 4
Info: CROSSTERM ENERGY INCLUDED IN DIHEDRAL
Info: TIMING OUTPUT STEPS    1000000
Info: PRESSURE OUTPUT STEPS  100000
Info: FIXED ATOMS ACTIVE
Info: LANGEVIN DYNAMICS ACTIVE
Info: LANGEVIN TEMPERATURE   30
Info: LANGEVIN USING BBK INTEGRATOR
Info: LANGEVIN DAMPING COEFFICIENT IS 1 INVERSE PS
Info: LANGEVIN DYNAMICS APPLIED TO HYDROGENS
Info: LANGEVIN PISTON PRESSURE CONTROL ACTIVE
Info:        TARGET PRESSURE IS 1.01325 BAR
Info:     OSCILLATION PERIOD IS 50 FS
Info:             DECAY TIME IS 25 FS
Info:     PISTON TEMPERATURE IS 300 K
Info:       PRESSURE CONTROL IS GROUP-BASED
Info:    INITIAL STRAIN RATE IS 0 0 0
Info:       CELL FLUCTUATION IS ISOTROPIC
Info: PARTICLE MESH EWALD (PME) ACTIVE
Info: PME TOLERANCE               1e-06
Info: PME EWALD COEFFICIENT       0.348832
Info: PME INTERPOLATION ORDER     4
Info: PME GRID DIMENSIONS         40 36 32
Info: PME MAXIMUM GRID SPACING    1
Info: FULL ELECTROSTATIC EVALUATION FREQUENCY      2
Info: USING VERLET I (r-RESPA) MTS SCHEME.
Info: C1 SPLITTING OF LONG RANGE ELECTROSTATICS
Info: PLACING ATOMS IN PATCHES BY HYDROGEN GROUPS
Info: RIGID BONDS TO HYDROGEN : ALL
Info:         ERROR TOLERANCE : 1e-08
Info:          MAX ITERATIONS : 100
Info: RIGID WATER USING SETTLE ALGORITHM
Info: RANDOM NUMBER SEED     1743684504
Info: USE HYDROGEN BONDS?    NO
Info: Using AMBER format force field!
Info: AMBER PARM FILE        mobley_2727678.prmtop
Info: COORDINATE PDB         mobley_2727678.pdb
Info: Exclusions will be read from PARM file!
Info: SCNB (VDW SCALING)     2
Info: USING ARITHMETIC MEAN TO COMBINE L-J SIGMA PARAMETERS
Info: BINARY COORDINATES     mobley_2727678_min.coor
Info: SUMMARY OF PARAMETERS:
Info: 10 BONDS
Info: 14 ANGLES
Info:   14 HARMONIC
Info:   0 COSINE-BASED
Info: 7 DIHEDRAL
Info: 0 IMPROPER
Info: 0 CROSSTERM
Info: 0 VDW
Info: 36 VDW_PAIRS
Info: 0 NBTHOLE_PAIRS
Info: STRUCTURE SUMMARY:
Info: 2952 ATOMS
Info: 2952 BONDS
Info: 18 ANGLES
Info: 33 DIHEDRALS
Info: 0 IMPROPERS
Info: 0 CROSSTERMS
Info: 2991 EXCLUSIONS
Info: 12 FIXED ATOMS
Info: 2943 RIGID BONDS
Info: 3 RIGID BONDS BETWEEN FIXED ATOMS
Info: 5880 DEGREES OF FREEDOM
Info: 989 HYDROGEN GROUPS
Info: 3 ATOMS IN LARGEST HYDROGEN GROUP
Info: 989 MIGRATION GROUPS
Info: 3 ATOMS IN LARGEST MIGRATION GROUP
Info: 9 HYDROGEN GROUPS WITH ALL ATOMS FIXED
Info: TOTAL MASS = 17893.7 amu
Info: TOTAL CHARGE = 0.000100046 e
Info: MASS DENSITY = 0.703663 g/cm^3
Info: ATOM DENSITY = 0.0699073 atoms/A^3
Info: ADDED 0 IMPLICIT EXCLUSIONS
Info: NONBONDED TABLE R-SQUARED SPACING: 0.0625
Info: NONBONDED TABLE SIZE: 705 POINTS
Info: REMOVING COM VELOCITY -0.126823 -0.0861775 -0.134121
TCL: Running for 100000 steps
ETITLE: TS BOND ANGLE DIHED IMPRP ELECT VDW BOUNDARY MISC KINETIC TOTAL TEMP POTENTIAL TOTAL3 TEMPAVG PRESSURE GPRESSURE VOLUME PRESSAVG GPRESSAVG
ENERGY: 0 0.0000 0.0000 0.0000 0.0000 -13861.4939 2369.5984 0.0000 0.0000 1802.4031 -9689.4924 308.5070 -11491.8955 -9689.1231 308.5070 237.5572 265.3151 42227.3316 237.5572 265.3151
ENERGY: 100000 0.0000 0.0000 0.0000 0.0000 -14438.0088 2488.3744 0.0000 0.0000 175.2689 -11774.3654 29.9998 -11949.6343 -11773.7257 30.8989 -82.9136 -17.4769 29264.0524 5.6045 5.5451
TCL: Running 100000 steps at 60 kelvin.
TCL: Setting parameter langevinTemp to 60
TCL: Running for 100000 steps
ETITLE: TS BOND ANGLE DIHED IMPRP ELECT VDW BOUNDARY MISC KINETIC TOTAL TEMP POTENTIAL TOTAL3 TEMPAVG PRESSURE GPRESSURE VOLUME PRESSAVG GPRESSAVG
ENERGY: 100000 0.0000 0.0000 0.0000 0.0000 -14438.0088 2488.3744 0.0000 0.0000 175.1839 -11774.4504 29.9852 -11949.6343 -11774.0885 29.9852 -69.0703 -17.0498 29264.0524 -69.0703 -17.0498
ENERGY: 200000 0.0000 0.0000 0.0000 0.0000 -14344.2793 2472.2773 0.0000 0.0000 332.9799 -11539.0221 56.9942 -11872.0020 -11538.0408 59.9763 167.0418 246.1213 29021.7112 3.7608 3.8155
TCL: Running 100000 steps at 90 kelvin.
TCL: Setting parameter langevinTemp to 90
TCL: Running for 100000 steps
ETITLE: TS BOND ANGLE DIHED IMPRP ELECT VDW BOUNDARY MISC KINETIC TOTAL TEMP POTENTIAL TOTAL3 TEMPAVG PRESSURE GPRESSURE VOLUME PRESSAVG GPRESSAVG
ENERGY: 200000 0.0000 0.0000 0.0000 0.0000 -14344.2793 2472.2773 0.0000 0.0000 332.8026 -11539.1993 56.9639 -11872.0020 -11538.5448 56.9639 172.2372 245.9146 29021.7112 172.2372 245.9146
ENERGY: 300000 0.0000 0.0000 0.0000 0.0000 -14074.1267 2308.1147 0.0000 0.0000 537.9177 -11228.0943 92.0723 -11766.0120 -11226.7258 90.1461 -827.2874 -798.0532 29414.5254 4.2425 4.3093
TCL: Running 100000 steps at 120 kelvin.
TCL: Setting parameter langevinTemp to 120
TCL: Running for 100000 steps
ETITLE: TS BOND ANGLE DIHED IMPRP ELECT VDW BOUNDARY MISC KINETIC TOTAL TEMP POTENTIAL TOTAL3 TEMPAVG PRESSURE GPRESSURE VOLUME PRESSAVG GPRESSAVG
ENERGY: 300000 0.0000 0.0000 0.0000 0.0000 -14074.1267 2308.1147 0.0000 0.0000 537.6487 -11228.3633 92.0262 -11766.0120 -11227.5101 92.0262 -845.7224 -798.2549 29414.5254 -845.7224 -798.2549
ENERGY: 400000 0.0000 0.0000 0.0000 0.0000 -13963.3773 2358.7573 0.0000 0.0000 707.0935 -10897.5265 121.0291 -11604.6200 -10895.9176 119.9466 348.0417 377.8618 28999.3809 3.7634 3.6761
TCL: Running 100000 steps at 150 kelvin.
TCL: Setting parameter langevinTemp to 150
TCL: Running for 100000 steps
ETITLE: TS BOND ANGLE DIHED IMPRP ELECT VDW BOUNDARY MISC KINETIC TOTAL TEMP POTENTIAL TOTAL3 TEMPAVG PRESSURE GPRESSURE VOLUME PRESSAVG GPRESSAVG
ENERGY: 400000 0.0000 0.0000 0.0000 0.0000 -13963.3773 2358.7573 0.0000 0.0000 706.7431 -10897.8770 120.9691 -11604.6200 -10896.4769 120.9691 325.4101 377.4331 28999.3809 325.4101 377.4331
ENERGY: 500000 0.0000 0.0000 0.0000 0.0000 -13879.1166 2407.2313 0.0000 0.0000 852.8198 -10619.0654 145.9723 -11471.8852 -10617.3581 149.9040 1319.4745 1422.2400 28697.2049 4.8353 4.8121
TCL: Running 100000 steps at 180 kelvin.
TCL: Setting parameter langevinTemp to 180
TCL: Running for 100000 steps
ETITLE: TS BOND ANGLE DIHED IMPRP ELECT VDW BOUNDARY MISC KINETIC TOTAL TEMP POTENTIAL TOTAL3 TEMPAVG PRESSURE GPRESSURE VOLUME PRESSAVG GPRESSAVG
ENERGY: 500000 0.0000 0.0000 0.0000 0.0000 -13879.1166 2407.2313 0.0000 0.0000 852.3868 -10619.4984 145.8981 -11471.8852 -10618.3712 145.8981 1359.6065 1422.3542 28697.2049 1359.6065 1422.3542
ENERGY: 600000 0.0000 0.0000 0.0000 0.0000 -13292.6972 2098.0266 0.0000 0.0000 1058.3273 -10136.3434 181.1478 -11194.6707 -10134.1879 179.9127 -84.3222 -42.8629 28943.4418 2.0789 2.1426
TCL: Running 100000 steps at 210 kelvin.
TCL: Setting parameter langevinTemp to 210
TCL: Running for 100000 steps
ETITLE: TS BOND ANGLE DIHED IMPRP ELECT VDW BOUNDARY MISC KINETIC TOTAL TEMP POTENTIAL TOTAL3 TEMPAVG PRESSURE GPRESSURE VOLUME PRESSAVG GPRESSAVG
ENERGY: 600000 0.0000 0.0000 0.0000 0.0000 -13292.6972 2098.0266 0.0000 0.0000 1057.8142 -10136.8565 181.0600 -11194.6707 -10135.1292 181.0600 -114.5026 -43.4711 28943.4418 -114.5026 -43.4711
ENERGY: 700000 0.0000 0.0000 0.0000 0.0000 -12630.1843 1873.8975 0.0000 0.0000 1230.3989 -9525.8879 210.6003 -10756.2868 -9523.9352 209.8158 -569.0649 -513.8335 29198.0190 3.1528 3.1935
TCL: Running 100000 steps at 240 kelvin.
TCL: Setting parameter langevinTemp to 240
TCL: Running for 100000 steps
ETITLE: TS BOND ANGLE DIHED IMPRP ELECT VDW BOUNDARY MISC KINETIC TOTAL TEMP POTENTIAL TOTAL3 TEMPAVG PRESSURE GPRESSURE VOLUME PRESSAVG GPRESSAVG
ENERGY: 700000 0.0000 0.0000 0.0000 0.0000 -12630.1843 1873.8975 0.0000 0.0000 1229.7955 -9526.4913 210.4970 -10756.2868 -9523.6278 210.4970 -591.6983 -514.3513 29198.0190 -591.6983 -514.3513
ENERGY: 800000 0.0000 0.0000 0.0000 0.0000 -12109.5876 1752.4055 0.0000 0.0000 1460.3532 -8896.8289 249.9603 -10357.1820 -8893.1946 239.1724 10.9238 134.8084 29177.7137 3.3800 3.2637
TCL: Running 100000 steps at 270 kelvin.
TCL: Setting parameter langevinTemp to 270
TCL: Running for 100000 steps
ETITLE: TS BOND ANGLE DIHED IMPRP ELECT VDW BOUNDARY MISC KINETIC TOTAL TEMP POTENTIAL TOTAL3 TEMPAVG PRESSURE GPRESSURE VOLUME PRESSAVG GPRESSAVG
ENERGY: 800000 0.0000 0.0000 0.0000 0.0000 -12109.5876 1752.4055 0.0000 0.0000 1459.6873 -8897.4947 249.8463 -10357.1820 -8895.7659 249.8463 54.1244 134.4596 29177.7137 54.1244 134.4596
ENERGY: 900000 0.0000 0.0000 0.0000 0.0000 -11353.4991 1490.0050 0.0000 0.0000 1573.0134 -8290.4806 269.2437 -9863.4940 -8288.0219 270.2542 -681.1919 -558.5625 29881.4962 3.7014 3.6685
TCL: Running 1000000 steps at 300 kelvin.
TCL: Setting parameter langevinTemp to 300
TCL: Running for 1000000 steps
ETITLE: TS BOND ANGLE DIHED IMPRP ELECT VDW BOUNDARY MISC KINETIC TOTAL TEMP POTENTIAL TOTAL3 TEMPAVG PRESSURE GPRESSURE VOLUME PRESSAVG GPRESSAVG
ENERGY: 900000 0.0000 0.0000 0.0000 0.0000 -11353.4991 1490.0050 0.0000 0.0000 1572.2325 -8291.2615 269.1100 -9863.4940 -8288.3626 269.1100 -646.9910 -558.1432 29881.4962 -646.9910 -558.1432
ENERGY: 1100000 0.0000 0.0000 0.0000 0.0000 -11114.9532 1526.6269 0.0000 0.0000 1708.4597 -7879.8665 292.4272 -9588.3262 -7878.4759 300.6982 588.2841 574.5446 30060.6283 2.8402 2.9386
ENERGY: 1300000 0.0000 0.0000 0.0000 0.0000 -10883.9646 1406.8621 0.0000 0.0000 1730.7503 -7746.3522 296.2426 -9477.1025 -7743.9846 299.9791 -246.3763 -177.7638 30357.8251 2.1534 2.0755
ENERGY: 1500000 0.0000 0.0000 0.0000 0.0000 -10791.6575 1373.3937 0.0000 0.0000 1727.4255 -7690.8383 295.6735 -9418.2638 -7687.7567 299.9911 -460.1447 -358.1680 30997.8923 3.9066 4.0784
ENERGY: 1700000 0.0000 0.0000 0.0000 0.0000 -10924.4105 1420.6020 0.0000 0.0000 1770.0707 -7733.7378 302.9728 -9503.8085 -7730.8855 299.6801 -291.6479 -168.0468 30393.2660 1.8475 1.7657
ENERGY: 1900000 0.0000 0.0000 0.0000 0.0000 -10802.5357 1356.2805 0.0000 0.0000 1767.7376 -7678.5176 302.5735 -9446.2552 -7674.9068 300.2353 -485.3778 -434.4703 30311.8411 3.1845 3.2041
TCL: Exiting due to exit command.
