Info: SIMULATION PARAMETERS:
Info: TIMESTEP               2
Info: NUMBER OF STEPS        0
Info: STEPS PER CYCLE        10
Info: PERIODIC CELL BASIS 1  37.133 0 0
Info: PERIODIC CELL BASIS 2  0 36.451 0
Info: PERIODIC CELL BASIS 3  0 0 33.152
Info: PERIODIC CELL CENTER   0 0 0
Info: WRAPPING WATERS AROUND PERIODIC BOUNDARIES ON OUTPUT.
Info: WRAPPING ALL CLUSTERS AROUND PERIODIC BOUNDARIES ON OUTPUT.
Info: FIRST LDB TIMESTEP     50
Info: LAST LDB TIMESTEP     -1
Info: HOM BACKGROUND SCALING 1
Info: PME BACKGROUND SCALING 1
Info: MIN ATOMS PER PATCH    40
Info: EMPTY PATCH LOAD       40 ATOMS
Info: INITIAL TEMPERATURE    300
Info: CENTER OF MASS MOVING INITIALLY? NO
Info: DIELECTRIC             1
Info: EXCLUDE                SCALED ONE-FOUR
Info: 1-4 ELECTROSTATICS SCALED BY 0.833333
Info: MODIFIED 1-4 VDW PARAMETERS WILL BE USED
Info: DCD FILENAME           mobley_5747188_equil.dcd
Info: DCD FREQUENCY          100000
Info: DCD FIRST STEP         100000
Info: DCD FILE WILL CONTAIN UNIT CELL DATA
Info: XST FILENAME           mobley_5747188_equil.xst
Info: XST FREQUENCY          100000
Info: NO VELOCITY DCD OUTPUT
Info: NO FORCE DCD OUTPUT
Info: OUTPUT FILENAME        mobley_5747188_equil
Info: BINARY OUTPUT FILES WILL BE USED
Info: RESTART FILENAME       mobley_5747188_equil.restart
Info: RESTART FREQUENCY      100000
Info: BINARY RESTART FILES WILL BE USED
Info: CUTOFF                 9
Info: PAIRLIST DISTANCE      11
Info: PAIRLIST SHRINK RATE   0.01
Info: PAIRLIST GROW RATE     0.01
Info: PAIRLIST TRIGGER       0.3
Info: PAIRLISTS PER CYCLE    2
Info: PAIRLISTS ENABLED
Info: MARGIN                 8
Info: HYDROGEN GROUP CUTOFF  2.5
Info: PATCH DIMENSION        21.5
Info: ENERGY OUTPUT STEPS    100000
Info: ENERGY EVALUATION STEPS    100000
Info: OUTPUT ENERGY PRECISION 4
Info: CROSSTERM ENERGY INCLUDED IN DIHEDRAL
Info: TIMING OUTPUT STEPS    1000000
Info: PRESSURE OUTPUT STEPS  100000
Info: FIXED ATOMS ACTIVE
Info: LANGEVIN DYNAMICS ACTIVE
Info: LANGEVIN TEMPERATURE   30
Info: LANGEVIN USING BBK INTEGRATOR
Info: LANGEVIN DAMPING COEFFICIENT IS 1 INVERSE PS
Info: LANGEVIN DYNAMICS APPLIED TO HYDROGENS
Info: LANGEVIN PISTON PRESSURE CONTROL ACTIVE
Info:        TARGET PRESSURE IS 1.01325 BAR
Info:     OSCILLATION PERIOD IS 50 FS
Info:             DECAY TIME IS 25 FS
Info:     PISTON TEMPERATURE IS 300 K
Info:       PRESSURE CONTROL IS GROUP-BASED
Info:    INITIAL STRAIN RATE IS 0 0 0
Info:       CELL FLUCTUATION IS ISOTROPIC
Info: PARTICLE MESH EWALD (PME) ACTIVE
Info: PME TOLERANCE               1e-06
Info: PME EWALD COEFFICIENT       0.348832
Info: PME INTERPOLATION ORDER     4
Info: PME GRID DIMENSIONS         40 40 36
Info: PME MAXIMUM GRID SPACING    1
Info: FULL ELECTROSTATIC EVALUATION FREQUENCY      2
Info: USING VERLET I (r-RESPA) MTS SCHEME.
Info: C1 SPLITTING OF LONG RANGE ELECTROSTATICS
Info: PLACING ATOMS IN PATCHES BY HYDROGEN GROUPS
Info: RIGID BONDS TO HYDROGEN : ALL
Info:         ERROR TOLERANCE : 1e-08
Info:          MAX ITERATIONS : 100
Info: RIGID WATER USING SETTLE ALGORITHM
Info: RANDOM NUMBER SEED     1744087142
Info: USE HYDROGEN BONDS?    NO
Info: Using AMBER format force field!
Info: AMBER PARM FILE        mobley_5747188.prmtop
Info: COORDINATE PDB         mobley_5747188.pdb
Info: Exclusions will be read from PARM file!
Info: SCNB (VDW SCALING)     2
Info: USING ARITHMETIC MEAN TO COMBINE L-J SIGMA PARAMETERS
Info: BINARY COORDINATES     mobley_5747188_min.coor
Info: SUMMARY OF PARAMETERS:
Info: 8 BONDS
Info: 8 ANGLES
Info:   8 HARMONIC
Info:   0 COSINE-BASED
Info: 4 DIHEDRAL
Info: 0 IMPROPER
Info: 0 CROSSTERM
Info: 0 VDW
Info: 36 VDW_PAIRS
Info: 0 NBTHOLE_PAIRS
Info: STRUCTURE SUMMARY:
Info: 2939 ATOMS
Info: 2939 BONDS
Info: 27 ANGLES
Info: 40 DIHEDRALS
Info: 0 IMPROPERS
Info: 0 CROSSTERMS
Info: 2997 EXCLUSIONS
Info: 17 FIXED ATOMS
Info: 2929 RIGID BONDS
Info: 7 RIGID BONDS BETWEEN FIXED ATOMS
Info: 5844 DEGREES OF FREEDOM
Info: 984 HYDROGEN GROUPS
Info: 4 ATOMS IN LARGEST HYDROGEN GROUP
Info: 984 MIGRATION GROUPS
Info: 4 ATOMS IN LARGEST MIGRATION GROUP
Info: 10 HYDROGEN GROUPS WITH ALL ATOMS FIXED
Info: TOTAL MASS = 17684.7 amu
Info: TOTAL CHARGE = 0.000100022 e
Info: MASS DENSITY = 0.654453 g/cm^3
Info: ATOM DENSITY = 0.0654968 atoms/A^3
Info: ADDED 0 IMPLICIT EXCLUSIONS
Info: NONBONDED TABLE R-SQUARED SPACING: 0.0625
Info: NONBONDED TABLE SIZE: 705 POINTS
Info: REMOVING COM VELOCITY -0.0109173 -0.171735 -0.0776817
TCL: Running for 100000 steps
ETITLE: TS BOND ANGLE DIHED IMPRP ELECT VDW BOUNDARY MISC KINETIC TOTAL TEMP POTENTIAL TOTAL3 TEMPAVG PRESSURE GPRESSURE VOLUME PRESSAVG GPRESSAVG
ENERGY: 0 0.0000 0.0000 0.0000 0.0000 -13593.8148 2395.7912 0.0000 0.0000 1713.3911 -9484.6325 295.0779 -11198.0236 -9484.3153 295.0779 422.1749 453.8951 44872.3918 422.1749 453.8951
ENERGY: 100000 0.0000 0.0000 0.0000 0.0000 -14161.7522 2478.8526 0.0000 0.0000 175.6013 -11507.2983 30.2418 -11682.8996 -11506.8101 30.9171 227.4536 310.5651 29076.2521 3.7533 3.7459
TCL: Running 100000 steps at 60 kelvin.
TCL: Setting parameter langevinTemp to 60
TCL: Running for 100000 steps
ETITLE: TS BOND ANGLE DIHED IMPRP ELECT VDW BOUNDARY MISC KINETIC TOTAL TEMP POTENTIAL TOTAL3 TEMPAVG PRESSURE GPRESSURE VOLUME PRESSAVG GPRESSAVG
ENERGY: 100000 0.0000 0.0000 0.0000 0.0000 -14161.7522 2478.8526 0.0000 0.0000 175.5159 -11507.3837 30.2271 -11682.8996 -11506.9924 30.2271 249.6113 310.8299 29076.2521 249.6113 310.8299
ENERGY: 200000 0.0000 0.0000 0.0000 0.0000 -14055.8031 2401.4165 0.0000 0.0000 344.6850 -11309.7016 59.3612 -11654.3866 -11308.6417 59.9936 -15.9703 37.0265 28280.5871 4.7784 4.8815
TCL: Running 100000 steps at 90 kelvin.
TCL: Setting parameter langevinTemp to 90
TCL: Running for 100000 steps
ETITLE: TS BOND ANGLE DIHED IMPRP ELECT VDW BOUNDARY MISC KINETIC TOTAL TEMP POTENTIAL TOTAL3 TEMPAVG PRESSURE GPRESSURE VOLUME PRESSAVG GPRESSAVG
ENERGY: 200000 0.0000 0.0000 0.0000 0.0000 -14055.8031 2401.4165 0.0000 0.0000 344.5044 -11309.8822 59.3301 -11654.3866 -11309.0887 59.3301 -16.2509 36.7024 28280.5871 -16.2509 36.7024
ENERGY: 300000 0.0000 0.0000 0.0000 0.0000 -14035.4144 2479.1511 0.0000 0.0000 503.4135 -11052.8497 86.6972 -11556.2632 -11051.8194 89.8859 928.9891 1019.4297 28218.6448 4.3512 4.4188
TCL: Running 100000 steps at 120 kelvin.
TCL: Setting parameter langevinTemp to 120
TCL: Running for 100000 steps
ETITLE: TS BOND ANGLE DIHED IMPRP ELECT VDW BOUNDARY MISC KINETIC TOTAL TEMP POTENTIAL TOTAL3 TEMPAVG PRESSURE GPRESSURE VOLUME PRESSAVG GPRESSAVG
ENERGY: 300000 0.0000 0.0000 0.0000 0.0000 -14035.4144 2479.1511 0.0000 0.0000 503.1535 -11053.1097 86.6524 -11556.2632 -11052.2736 86.6524 967.4090 1019.3364 28218.6448 967.4090 1019.3364
ENERGY: 400000 0.0000 0.0000 0.0000 0.0000 -13709.2208 2285.3302 0.0000 0.0000 687.4638 -10736.4268 118.3941 -11423.8906 -10734.6811 119.8556 -127.5397 -91.6776 28479.0457 4.1751 4.2167
TCL: Running 100000 steps at 150 kelvin.
TCL: Setting parameter langevinTemp to 150
TCL: Running for 100000 steps
ETITLE: TS BOND ANGLE DIHED IMPRP ELECT VDW BOUNDARY MISC KINETIC TOTAL TEMP POTENTIAL TOTAL3 TEMPAVG PRESSURE GPRESSURE VOLUME PRESSAVG GPRESSAVG
ENERGY: 400000 0.0000 0.0000 0.0000 0.0000 -13709.2208 2285.3302 0.0000 0.0000 687.1078 -10736.7828 118.3328 -11423.8906 -10735.3190 118.3328 -134.7005 -91.6933 28479.0457 -134.7005 -91.6933
ENERGY: 500000 0.0000 0.0000 0.0000 0.0000 -13396.9834 2150.4094 0.0000 0.0000 867.6326 -10378.9414 149.4225 -11246.5740 -10376.1386 150.1134 -804.1508 -762.9612 28875.6234 4.8174 4.7814
TCL: Running 100000 steps at 180 kelvin.
TCL: Setting parameter langevinTemp to 180
TCL: Running for 100000 steps
ETITLE: TS BOND ANGLE DIHED IMPRP ELECT VDW BOUNDARY MISC KINETIC TOTAL TEMP POTENTIAL TOTAL3 TEMPAVG PRESSURE GPRESSURE VOLUME PRESSAVG GPRESSAVG
ENERGY: 500000 0.0000 0.0000 0.0000 0.0000 -13396.9834 2150.4094 0.0000 0.0000 867.2073 -10379.3667 149.3493 -11246.5740 -10377.2845 149.3493 -816.0194 -763.0019 28875.6234 -816.0194 -763.0019
ENERGY: 600000 0.0000 0.0000 0.0000 0.0000 -13166.1298 2157.5738 0.0000 0.0000 1034.5973 -9973.9587 178.1769 -11008.5560 -9971.3210 180.0474 505.2207 574.9568 28468.5946 3.3720 3.3344
TCL: Running 100000 steps at 210 kelvin.
TCL: Setting parameter langevinTemp to 210
TCL: Running for 100000 steps
ETITLE: TS BOND ANGLE DIHED IMPRP ELECT VDW BOUNDARY MISC KINETIC TOTAL TEMP POTENTIAL TOTAL3 TEMPAVG PRESSURE GPRESSURE VOLUME PRESSAVG GPRESSAVG
ENERGY: 600000 0.0000 0.0000 0.0000 0.0000 -13166.1298 2157.5738 0.0000 0.0000 1034.0893 -9974.4667 178.0895 -11008.5560 -9972.5851 178.0895 501.3552 575.4777 28468.5946 501.3552 575.4777
ENERGY: 700000 0.0000 0.0000 0.0000 0.0000 -12467.5220 1916.0435 0.0000 0.0000 1216.4922 -9334.9862 209.5027 -10551.4785 -9331.0951 209.7690 -26.3696 22.3427 28824.2356 3.2014 3.3399
TCL: Running 100000 steps at 240 kelvin.
TCL: Setting parameter langevinTemp to 240
TCL: Running for 100000 steps
ETITLE: TS BOND ANGLE DIHED IMPRP ELECT VDW BOUNDARY MISC KINETIC TOTAL TEMP POTENTIAL TOTAL3 TEMPAVG PRESSURE GPRESSURE VOLUME PRESSAVG GPRESSAVG
ENERGY: 700000 0.0000 0.0000 0.0000 0.0000 -12467.5220 1916.0435 0.0000 0.0000 1215.9054 -9335.5731 209.4016 -10551.4785 -9333.9200 209.4016 -45.6605 22.8027 28824.2356 -45.6605 22.8027
ENERGY: 800000 0.0000 0.0000 0.0000 0.0000 -11766.4581 1693.3248 0.0000 0.0000 1358.6448 -8714.4884 233.9840 -10073.1332 -8711.9585 239.8866 -129.6032 20.4812 28759.8108 3.4671 3.3264
TCL: Running 100000 steps at 270 kelvin.
TCL: Setting parameter langevinTemp to 270
TCL: Running for 100000 steps
ETITLE: TS BOND ANGLE DIHED IMPRP ELECT VDW BOUNDARY MISC KINETIC TOTAL TEMP POTENTIAL TOTAL3 TEMPAVG PRESSURE GPRESSURE VOLUME PRESSAVG GPRESSAVG
ENERGY: 800000 0.0000 0.0000 0.0000 0.0000 -11766.4581 1693.3248 0.0000 0.0000 1357.9216 -8715.2117 233.8594 -10073.1332 -8713.2504 233.8594 -71.9331 19.6940 28759.8108 -71.9331 19.6940
ENERGY: 900000 0.0000 0.0000 0.0000 0.0000 -11234.9311 1579.5344 0.0000 0.0000 1593.6886 -8061.7080 274.4629 -9655.3966 -8059.8231 270.1281 -23.1058 28.1334 29747.8857 3.7939 3.5903
TCL: Running 1000000 steps at 300 kelvin.
TCL: Setting parameter langevinTemp to 300
TCL: Running for 1000000 steps
ETITLE: TS BOND ANGLE DIHED IMPRP ELECT VDW BOUNDARY MISC KINETIC TOTAL TEMP POTENTIAL TOTAL3 TEMPAVG PRESSURE GPRESSURE VOLUME PRESSAVG GPRESSAVG
ENERGY: 900000 0.0000 0.0000 0.0000 0.0000 -11234.9311 1579.5344 0.0000 0.0000 1592.9152 -8062.4814 274.3297 -9655.3966 -8059.9773 274.3297 -47.1017 26.7925 29747.8857 -47.1017 26.7925
ENERGY: 1100000 0.0000 0.0000 0.0000 0.0000 -10684.7036 1417.3779 0.0000 0.0000 1751.4319 -7515.8937 301.6292 -9267.3256 -7514.2804 299.8141 -166.4191 -57.0857 30214.3056 1.9231 1.8172
ENERGY: 1300000 0.0000 0.0000 0.0000 0.0000 -10606.0845 1388.9583 0.0000 0.0000 1732.9651 -7484.1610 298.4489 -9217.1262 -7482.9406 301.0389 -163.0447 -115.5780 30119.0477 2.4076 2.2496
ENERGY: 1500000 0.0000 0.0000 0.0000 0.0000 -10662.0698 1444.0359 0.0000 0.0000 1759.9410 -7458.0929 303.0947 -9218.0339 -7454.6112 299.9122 60.8324 123.8809 30529.1956 2.0189 1.8415
ENERGY: 1700000 0.0000 0.0000 0.0000 0.0000 -10612.9667 1385.5589 0.0000 0.0000 1722.1250 -7505.2828 296.5820 -9227.4079 -7502.8606 300.2193 -169.6455 -142.4719 30150.3709 3.2320 3.2190
ENERGY: 1900000 0.0000 0.0000 0.0000 0.0000 -10646.9238 1422.0010 0.0000 0.0000 1767.0790 -7457.8438 304.3240 -9224.9228 -7453.8434 300.0039 -218.6011 -117.7078 30700.8425 4.7034 4.5772
TCL: Exiting due to exit command.
