Info: SIMULATION PARAMETERS:
Info: TIMESTEP               2
Info: NUMBER OF STEPS        0
Info: STEPS PER CYCLE        10
Info: PERIODIC CELL BASIS 1  37.38 0 0
Info: PERIODIC CELL BASIS 2  0 36.451 0
Info: PERIODIC CELL BASIS 3  0 0 31.855
Info: PERIODIC CELL CENTER   0 0 0
Info: WRAPPING WATERS AROUND PERIODIC BOUNDARIES ON OUTPUT.
Info: WRAPPING ALL CLUSTERS AROUND PERIODIC BOUNDARIES ON OUTPUT.
Info: FIRST LDB TIMESTEP     50
Info: LAST LDB TIMESTEP     -1
Info: HOM BACKGROUND SCALING 1
Info: PME BACKGROUND SCALING 1
Info: MIN ATOMS PER PATCH    40
Info: EMPTY PATCH LOAD       40 ATOMS
Info: INITIAL TEMPERATURE    300
Info: CENTER OF MASS MOVING INITIALLY? NO
Info: DIELECTRIC             1
Info: EXCLUDE                SCALED ONE-FOUR
Info: 1-4 ELECTROSTATICS SCALED BY 0.833333
Info: MODIFIED 1-4 VDW PARAMETERS WILL BE USED
Info: DCD FILENAME           mobley_2782339_equil.dcd
Info: DCD FREQUENCY          100000
Info: DCD FIRST STEP         100000
Info: DCD FILE WILL CONTAIN UNIT CELL DATA
Info: XST FILENAME           mobley_2782339_equil.xst
Info: XST FREQUENCY          100000
Info: NO VELOCITY DCD OUTPUT
Info: NO FORCE DCD OUTPUT
Info: OUTPUT FILENAME        mobley_2782339_equil
Info: BINARY OUTPUT FILES WILL BE USED
Info: RESTART FILENAME       mobley_2782339_equil.restart
Info: RESTART FREQUENCY      100000
Info: BINARY RESTART FILES WILL BE USED
Info: CUTOFF                 9
Info: PAIRLIST DISTANCE      11
Info: PAIRLIST SHRINK RATE   0.01
Info: PAIRLIST GROW RATE     0.01
Info: PAIRLIST TRIGGER       0.3
Info: PAIRLISTS PER CYCLE    2
Info: PAIRLISTS ENABLED
Info: MARGIN                 8
Info: HYDROGEN GROUP CUTOFF  2.5
Info: PATCH DIMENSION        21.5
Info: ENERGY OUTPUT STEPS    100000
Info: ENERGY EVALUATION STEPS    100000
Info: OUTPUT ENERGY PRECISION 4
Info: CROSSTERM ENERGY INCLUDED IN DIHEDRAL
Info: TIMING OUTPUT STEPS    1000000
Info: PRESSURE OUTPUT STEPS  100000
Info: FIXED ATOMS ACTIVE
Info: LANGEVIN DYNAMICS ACTIVE
Info: LANGEVIN TEMPERATURE   30
Info: LANGEVIN USING BBK INTEGRATOR
Info: LANGEVIN DAMPING COEFFICIENT IS 1 INVERSE PS
Info: LANGEVIN DYNAMICS APPLIED TO HYDROGENS
Info: LANGEVIN PISTON PRESSURE CONTROL ACTIVE
Info:        TARGET PRESSURE IS 1.01325 BAR
Info:     OSCILLATION PERIOD IS 50 FS
Info:             DECAY TIME IS 25 FS
Info:     PISTON TEMPERATURE IS 300 K
Info:       PRESSURE CONTROL IS GROUP-BASED
Info:    INITIAL STRAIN RATE IS 0 0 0
Info:       CELL FLUCTUATION IS ISOTROPIC
Info: PARTICLE MESH EWALD (PME) ACTIVE
Info: PME TOLERANCE               1e-06
Info: PME EWALD COEFFICIENT       0.348832
Info: PME INTERPOLATION ORDER     4
Info: PME GRID DIMENSIONS         40 40 32
Info: PME MAXIMUM GRID SPACING    1
Info: FULL ELECTROSTATIC EVALUATION FREQUENCY      2
Info: USING VERLET I (r-RESPA) MTS SCHEME.
Info: C1 SPLITTING OF LONG RANGE ELECTROSTATICS
Info: PLACING ATOMS IN PATCHES BY HYDROGEN GROUPS
Info: RIGID BONDS TO HYDROGEN : ALL
Info:         ERROR TOLERANCE : 1e-08
Info:          MAX ITERATIONS : 100
Info: RIGID WATER USING SETTLE ALGORITHM
Info: RANDOM NUMBER SEED     1743738369
Info: USE HYDROGEN BONDS?    NO
Info: Using AMBER format force field!
Info: AMBER PARM FILE        mobley_2782339.prmtop
Info: COORDINATE PDB         mobley_2782339.pdb
Info: Exclusions will be read from PARM file!
Info: SCNB (VDW SCALING)     2
Info: USING ARITHMETIC MEAN TO COMBINE L-J SIGMA PARAMETERS
Info: BINARY COORDINATES     mobley_2782339_min.coor
Info: SUMMARY OF PARAMETERS:
Info: 8 BONDS
Info: 8 ANGLES
Info: 6 DIHEDRAL
Info: 0 IMPROPER
Info: 0 CROSSTERM
Info: 0 VDW
Info: 28 VDW_PAIRS
Info: 0 NBTHOLE_PAIRS
Info: STRUCTURE SUMMARY:
Info: 2908 ATOMS
Info: 2909 BONDS
Info: 27 ANGLES
Info: 51 DIHEDRALS
Info: 0 IMPROPERS
Info: 0 CROSSTERMS
Info: 2968 EXCLUSIONS
Info: 16 FIXED ATOMS
Info: 2897 RIGID BONDS
Info: 5 RIGID BONDS BETWEEN FIXED ATOMS
Info: 5784 DEGREES OF FREEDOM
Info: 975 HYDROGEN GROUPS
Info: 3 ATOMS IN LARGEST HYDROGEN GROUP
Info: 975 MIGRATION GROUPS
Info: 3 ATOMS IN LARGEST MIGRATION GROUP
Info: 11 HYDROGEN GROUPS WITH ALL ATOMS FIXED
Info: TOTAL MASS = 17514.6 amu
Info: TOTAL CHARGE = 5.21541e-08 e
Info: MASS DENSITY = 0.670088 g/cm^3
Info: ATOM DENSITY = 0.066999 atoms/A^3
Info: ADDED 0 IMPLICIT EXCLUSIONS
Info: NONBONDED TABLE R-SQUARED SPACING: 0.0625
Info: NONBONDED TABLE SIZE: 705 POINTS
Info: REMOVING COM VELOCITY -0.0707221 0.080868 0.151744
TCL: Running for 100000 steps
ETITLE: TS BOND ANGLE DIHED IMPRP ELECT VDW BOUNDARY MISC KINETIC TOTAL TEMP POTENTIAL TOTAL3 TEMPAVG PRESSURE GPRESSURE VOLUME PRESSAVG GPRESSAVG
ENERGY: 0 0.0000 0.0000 0.0000 0.0000 -13597.3000 2331.1095 0.0000 0.0000 1725.0693 -9541.1212 300.1709 -11266.1905 -9540.7804 300.1709 186.6060 220.1314 43403.6601 186.6060 220.1314
ENERGY: 100000 0.0000 0.0000 0.0000 0.0000 -14002.1801 2335.7927 0.0000 0.0000 172.9009 -11493.4864 30.0856 -11666.3873 -11493.0890 30.8439 -634.5435 -574.5213 29214.2174 4.0965 4.0961
TCL: Running 100000 steps at 60 kelvin.
TCL: Setting parameter langevinTemp to 60
TCL: Running for 100000 steps
ETITLE: TS BOND ANGLE DIHED IMPRP ELECT VDW BOUNDARY MISC KINETIC TOTAL TEMP POTENTIAL TOTAL3 TEMPAVG PRESSURE GPRESSURE VOLUME PRESSAVG GPRESSAVG
ENERGY: 100000 0.0000 0.0000 0.0000 0.0000 -14002.1801 2335.7927 0.0000 0.0000 172.8145 -11493.5729 30.0706 -11666.3873 -11493.1187 30.0706 -630.1786 -574.5895 29214.2174 -630.1786 -574.5895
ENERGY: 200000 0.0000 0.0000 0.0000 0.0000 -14172.4459 2506.9914 0.0000 0.0000 345.1937 -11320.2608 60.0655 -11665.4546 -11319.9190 60.0033 926.3695 973.5603 28375.2629 3.7959 3.9310
TCL: Running 100000 steps at 90 kelvin.
TCL: Setting parameter langevinTemp to 90
TCL: Running for 100000 steps
ETITLE: TS BOND ANGLE DIHED IMPRP ELECT VDW BOUNDARY MISC KINETIC TOTAL TEMP POTENTIAL TOTAL3 TEMPAVG PRESSURE GPRESSURE VOLUME PRESSAVG GPRESSAVG
ENERGY: 200000 0.0000 0.0000 0.0000 0.0000 -14172.4459 2506.9914 0.0000 0.0000 345.0217 -11320.4328 60.0356 -11665.4546 -11319.8426 60.0356 916.3836 973.0830 28375.2629 916.3836 973.0830
ENERGY: 300000 0.0000 0.0000 0.0000 0.0000 -13913.3420 2335.0435 0.0000 0.0000 525.9026 -11052.3959 91.5098 -11578.2985 -11051.2073 89.9117 -184.9857 -128.2437 28406.5707 3.0825 2.9944
TCL: Running 100000 steps at 120 kelvin.
TCL: Setting parameter langevinTemp to 120
TCL: Running for 100000 steps
ETITLE: TS BOND ANGLE DIHED IMPRP ELECT VDW BOUNDARY MISC KINETIC TOTAL TEMP POTENTIAL TOTAL3 TEMPAVG PRESSURE GPRESSURE VOLUME PRESSAVG GPRESSAVG
ENERGY: 300000 0.0000 0.0000 0.0000 0.0000 -13913.3420 2335.0435 0.0000 0.0000 525.6373 -11052.6612 91.4636 -11578.2985 -11051.5368 91.4636 -185.3075 -128.9513 28406.5707 -185.3075 -128.9513
ENERGY: 400000 0.0000 0.0000 0.0000 0.0000 -13703.1331 2241.1792 0.0000 0.0000 701.7485 -10760.2054 122.1079 -11461.9539 -10758.3518 119.8395 -643.8898 -611.4350 28716.0710 3.9404 3.9686
TCL: Running 100000 steps at 150 kelvin.
TCL: Setting parameter langevinTemp to 150
TCL: Running for 100000 steps
ETITLE: TS BOND ANGLE DIHED IMPRP ELECT VDW BOUNDARY MISC KINETIC TOTAL TEMP POTENTIAL TOTAL3 TEMPAVG PRESSURE GPRESSURE VOLUME PRESSAVG GPRESSAVG
ENERGY: 400000 0.0000 0.0000 0.0000 0.0000 -13703.1331 2241.1792 0.0000 0.0000 701.3926 -10760.5613 122.0459 -11461.9539 -10759.0677 122.0459 -655.7736 -611.5582 28716.0710 -655.7736 -611.5582
ENERGY: 500000 0.0000 0.0000 0.0000 0.0000 -13558.4462 2249.8251 0.0000 0.0000 880.5815 -10428.0396 153.2257 -11308.6211 -10426.2910 149.8600 185.5094 227.7002 28469.5444 5.0597 5.1196
TCL: Running 100000 steps at 180 kelvin.
TCL: Setting parameter langevinTemp to 180
TCL: Running for 100000 steps
ETITLE: TS BOND ANGLE DIHED IMPRP ELECT VDW BOUNDARY MISC KINETIC TOTAL TEMP POTENTIAL TOTAL3 TEMPAVG PRESSURE GPRESSURE VOLUME PRESSAVG GPRESSAVG
ENERGY: 500000 0.0000 0.0000 0.0000 0.0000 -13558.4462 2249.8251 0.0000 0.0000 880.1472 -10428.4739 153.1501 -11308.6211 -10426.8990 153.1501 186.3113 227.2720 28469.5444 186.3113 227.2720
ENERGY: 600000 0.0000 0.0000 0.0000 0.0000 -12911.3792 1994.5330 0.0000 0.0000 1028.8472 -9887.9990 179.0247 -10916.8462 -9886.2686 180.1936 -571.0793 -497.9832 28652.7873 4.8166 4.8320
TCL: Running 100000 steps at 210 kelvin.
TCL: Setting parameter langevinTemp to 210
TCL: Running for 100000 steps
ETITLE: TS BOND ANGLE DIHED IMPRP ELECT VDW BOUNDARY MISC KINETIC TOTAL TEMP POTENTIAL TOTAL3 TEMPAVG PRESSURE GPRESSURE VOLUME PRESSAVG GPRESSAVG
ENERGY: 600000 0.0000 0.0000 0.0000 0.0000 -12911.3792 1994.5330 0.0000 0.0000 1028.3475 -9888.4987 178.9378 -10916.8462 -9886.8303 178.9378 -557.8676 -497.8433 28652.7873 -557.8676 -497.8433
ENERGY: 700000 0.0000 0.0000 0.0000 0.0000 -12507.3355 1929.5799 0.0000 0.0000 1194.6905 -9383.0651 207.8823 -10577.7556 -9379.1642 209.9255 413.4979 504.9439 28128.8439 2.6495 2.4905
TCL: Running 100000 steps at 240 kelvin.
TCL: Setting parameter langevinTemp to 240
TCL: Running for 100000 steps
ETITLE: TS BOND ANGLE DIHED IMPRP ELECT VDW BOUNDARY MISC KINETIC TOTAL TEMP POTENTIAL TOTAL3 TEMPAVG PRESSURE GPRESSURE VOLUME PRESSAVG GPRESSAVG
ENERGY: 700000 0.0000 0.0000 0.0000 0.0000 -12507.3355 1929.5799 0.0000 0.0000 1194.0782 -9383.6773 207.7758 -10577.7556 -9381.0379 207.7758 411.1120 506.1312 28128.8439 411.1120 506.1312
ENERGY: 800000 0.0000 0.0000 0.0000 0.0000 -11760.8631 1677.8234 0.0000 0.0000 1392.6618 -8690.3779 242.3303 -10083.0397 -8685.0433 239.6064 -156.4118 -47.8659 28752.4750 4.0567 4.2493
TCL: Running 100000 steps at 270 kelvin.
TCL: Setting parameter langevinTemp to 270
TCL: Running for 100000 steps
ETITLE: TS BOND ANGLE DIHED IMPRP ELECT VDW BOUNDARY MISC KINETIC TOTAL TEMP POTENTIAL TOTAL3 TEMPAVG PRESSURE GPRESSURE VOLUME PRESSAVG GPRESSAVG
ENERGY: 800000 0.0000 0.0000 0.0000 0.0000 -11760.8631 1677.8234 0.0000 0.0000 1391.9820 -8691.0577 242.2120 -10083.0397 -8689.2894 242.2120 -132.2926 -44.3255 28752.4750 -132.2926 -44.3255
ENERGY: 900000 0.0000 0.0000 0.0000 0.0000 -11170.7603 1539.8566 0.0000 0.0000 1548.3509 -8082.5528 269.4210 -9630.9037 -8078.1744 269.6725 87.7292 197.8427 29333.8318 3.0220 2.9577
TCL: Running 1000000 steps at 300 kelvin.
TCL: Setting parameter langevinTemp to 300
TCL: Running for 1000000 steps
ETITLE: TS BOND ANGLE DIHED IMPRP ELECT VDW BOUNDARY MISC KINETIC TOTAL TEMP POTENTIAL TOTAL3 TEMPAVG PRESSURE GPRESSURE VOLUME PRESSAVG GPRESSAVG
ENERGY: 900000 0.0000 0.0000 0.0000 0.0000 -11170.7603 1539.8566 0.0000 0.0000 1547.5864 -8083.3173 269.2880 -9630.9037 -8080.9280 269.2880 130.2657 199.5334 29333.8318 130.2657 199.5334
ENERGY: 1100000 0.0000 0.0000 0.0000 0.0000 -10719.5240 1423.7312 0.0000 0.0000 1724.4571 -7571.3357 300.0644 -9295.7928 -7565.0890 301.0457 106.4279 193.1039 29740.1537 2.5832 2.5203
ENERGY: 1300000 0.0000 0.0000 0.0000 0.0000 -10737.3500 1451.3079 0.0000 0.0000 1735.3117 -7550.7304 301.9532 -9286.0421 -7546.8169 300.2116 361.2923 440.6552 29762.4189 4.5774 4.2977
ENERGY: 1500000 0.0000 0.0000 0.0000 0.0000 -10519.4623 1314.5728 0.0000 0.0000 1730.1258 -7474.7637 301.0508 -9204.8895 -7473.6760 300.9724 -685.4590 -574.4571 30173.3609 2.4075 2.3716
ENERGY: 1700000 0.0000 0.0000 0.0000 0.0000 -10745.1288 1414.9842 0.0000 0.0000 1751.8124 -7578.3322 304.8244 -9330.1445 -7572.9138 300.6012 -91.9835 34.3695 29702.8452 2.2239 1.9063
ENERGY: 1900000 0.0000 0.0000 0.0000 0.0000 -10665.1492 1372.2796 0.0000 0.0000 1711.7959 -7581.0737 297.8613 -9292.8696 -7578.4847 299.6325 -298.4556 -208.0304 29677.0776 1.7339 1.5398
TCL: Exiting due to exit command.
