Info: SIMULATION PARAMETERS:
Info: TIMESTEP               2
Info: NUMBER OF STEPS        0
Info: STEPS PER CYCLE        10
Info: PERIODIC CELL BASIS 1  37.968 0 0
Info: PERIODIC CELL BASIS 2  0 35.779 0
Info: PERIODIC CELL BASIS 3  0 0 31.855
Info: PERIODIC CELL CENTER   0 0 0
Info: WRAPPING WATERS AROUND PERIODIC BOUNDARIES ON OUTPUT.
Info: WRAPPING ALL CLUSTERS AROUND PERIODIC BOUNDARIES ON OUTPUT.
Info: FIRST LDB TIMESTEP     50
Info: LAST LDB TIMESTEP     -1
Info: HOM BACKGROUND SCALING 1
Info: PME BACKGROUND SCALING 1
Info: MIN ATOMS PER PATCH    40
Info: EMPTY PATCH LOAD       40 ATOMS
Info: INITIAL TEMPERATURE    300
Info: CENTER OF MASS MOVING INITIALLY? NO
Info: DIELECTRIC             1
Info: EXCLUDE                SCALED ONE-FOUR
Info: 1-4 ELECTROSTATICS SCALED BY 0.833333
Info: MODIFIED 1-4 VDW PARAMETERS WILL BE USED
Info: DCD FILENAME           mobley_8764620_equil.dcd
Info: DCD FREQUENCY          100000
Info: DCD FIRST STEP         100000
Info: DCD FILE WILL CONTAIN UNIT CELL DATA
Info: XST FILENAME           mobley_8764620_equil.xst
Info: XST FREQUENCY          100000
Info: NO VELOCITY DCD OUTPUT
Info: NO FORCE DCD OUTPUT
Info: OUTPUT FILENAME        mobley_8764620_equil
Info: BINARY OUTPUT FILES WILL BE USED
Info: RESTART FILENAME       mobley_8764620_equil.restart
Info: RESTART FREQUENCY      100000
Info: BINARY RESTART FILES WILL BE USED
Info: CUTOFF                 9
Info: PAIRLIST DISTANCE      11
Info: PAIRLIST SHRINK RATE   0.01
Info: PAIRLIST GROW RATE     0.01
Info: PAIRLIST TRIGGER       0.3
Info: PAIRLISTS PER CYCLE    2
Info: PAIRLISTS ENABLED
Info: MARGIN                 8
Info: HYDROGEN GROUP CUTOFF  2.5
Info: PATCH DIMENSION        21.5
Info: ENERGY OUTPUT STEPS    100000
Info: ENERGY EVALUATION STEPS    100000
Info: OUTPUT ENERGY PRECISION 4
Info: CROSSTERM ENERGY INCLUDED IN DIHEDRAL
Info: TIMING OUTPUT STEPS    1000000
Info: PRESSURE OUTPUT STEPS  100000
Info: FIXED ATOMS ACTIVE
Info: LANGEVIN DYNAMICS ACTIVE
Info: LANGEVIN TEMPERATURE   30
Info: LANGEVIN USING BBK INTEGRATOR
Info: LANGEVIN DAMPING COEFFICIENT IS 1 INVERSE PS
Info: LANGEVIN DYNAMICS APPLIED TO HYDROGENS
Info: LANGEVIN PISTON PRESSURE CONTROL ACTIVE
Info:        TARGET PRESSURE IS 1.01325 BAR
Info:     OSCILLATION PERIOD IS 50 FS
Info:             DECAY TIME IS 25 FS
Info:     PISTON TEMPERATURE IS 300 K
Info:       PRESSURE CONTROL IS GROUP-BASED
Info:    INITIAL STRAIN RATE IS 0 0 0
Info:       CELL FLUCTUATION IS ISOTROPIC
Info: PARTICLE MESH EWALD (PME) ACTIVE
Info: PME TOLERANCE               1e-06
Info: PME EWALD COEFFICIENT       0.348832
Info: PME INTERPOLATION ORDER     4
Info: PME GRID DIMENSIONS         40 36 32
Info: PME MAXIMUM GRID SPACING    1
Info: FULL ELECTROSTATIC EVALUATION FREQUENCY      2
Info: USING VERLET I (r-RESPA) MTS SCHEME.
Info: C1 SPLITTING OF LONG RANGE ELECTROSTATICS
Info: PLACING ATOMS IN PATCHES BY HYDROGEN GROUPS
Info: RIGID BONDS TO HYDROGEN : ALL
Info:         ERROR TOLERANCE : 1e-08
Info:          MAX ITERATIONS : 100
Info: RIGID WATER USING SETTLE ALGORITHM
Info: RANDOM NUMBER SEED     1743727279
Info: USE HYDROGEN BONDS?    NO
Info: Using AMBER format force field!
Info: AMBER PARM FILE        mobley_8764620.prmtop
Info: COORDINATE PDB         mobley_8764620.pdb
Info: Exclusions will be read from PARM file!
Info: SCNB (VDW SCALING)     2
Info: USING ARITHMETIC MEAN TO COMBINE L-J SIGMA PARAMETERS
Info: BINARY COORDINATES     mobley_8764620_min.coor
Info: SUMMARY OF PARAMETERS:
Info: 8 BONDS
Info: 8 ANGLES
Info:   8 HARMONIC
Info:   0 COSINE-BASED
Info: 4 DIHEDRAL
Info: 0 IMPROPER
Info: 0 CROSSTERM
Info: 0 VDW
Info: 28 VDW_PAIRS
Info: 0 NBTHOLE_PAIRS
Info: STRUCTURE SUMMARY:
Info: 2979 ATOMS
Info: 2979 BONDS
Info: 17 ANGLES
Info: 27 DIHEDRALS
Info: 0 IMPROPERS
Info: 0 CROSSTERMS
Info: 3015 EXCLUSIONS
Info: 12 FIXED ATOMS
Info: 2971 RIGID BONDS
Info: 4 RIGID BONDS BETWEEN FIXED ATOMS
Info: 5934 DEGREES OF FREEDOM
Info: 997 HYDROGEN GROUPS
Info: 3 ATOMS IN LARGEST HYDROGEN GROUP
Info: 997 MIGRATION GROUPS
Info: 3 ATOMS IN LARGEST MIGRATION GROUP
Info: 8 HYDROGEN GROUPS WITH ALL ATOMS FIXED
Info: TOTAL MASS = 17921.9 amu
Info: TOTAL CHARGE = 9.99831e-05 e
Info: MASS DENSITY = 0.687734 g/cm^3
Info: ATOM DENSITY = 0.068841 atoms/A^3
Info: ADDED 0 IMPLICIT EXCLUSIONS
Info: NONBONDED TABLE R-SQUARED SPACING: 0.0625
Info: NONBONDED TABLE SIZE: 705 POINTS
Info: REMOVING COM VELOCITY 0.0944084 -0.0176968 -0.0881551
TCL: Running for 100000 steps
ETITLE: TS BOND ANGLE DIHED IMPRP ELECT VDW BOUNDARY MISC KINETIC TOTAL TEMP POTENTIAL TOTAL3 TEMPAVG PRESSURE GPRESSURE VOLUME PRESSAVG GPRESSAVG
ENERGY: 0 0.0000 0.0000 0.0000 0.0000 -13929.0935 2420.8106 0.0000 0.0000 1721.7229 -9786.5600 292.0156 -11508.2829 -9786.2236 292.0156 335.4974 357.9637 43273.6500 335.4974 357.9637
ENERGY: 100000 0.0000 0.0000 0.0000 0.0000 -14397.8983 2511.6367 0.0000 0.0000 177.7523 -11708.5093 30.1480 -11886.2616 -11708.1106 30.9089 114.5902 162.0483 29895.1624 3.3569 3.3111
TCL: Running 100000 steps at 60 kelvin.
TCL: Setting parameter langevinTemp to 60
TCL: Running for 100000 steps
ETITLE: TS BOND ANGLE DIHED IMPRP ELECT VDW BOUNDARY MISC KINETIC TOTAL TEMP POTENTIAL TOTAL3 TEMPAVG PRESSURE GPRESSURE VOLUME PRESSAVG GPRESSAVG
ENERGY: 100000 0.0000 0.0000 0.0000 0.0000 -14397.8983 2511.6367 0.0000 0.0000 177.6623 -11708.5993 30.1327 -11886.2616 -11708.2126 30.1327 107.8870 162.1363 29895.1624 107.8870 162.1363
ENERGY: 200000 0.0000 0.0000 0.0000 0.0000 -14277.3981 2430.9185 0.0000 0.0000 359.8858 -11486.5938 61.0390 -11846.4796 -11485.8638 60.0971 -290.6418 -218.3246 29569.8741 5.4309 5.4337
TCL: Running 100000 steps at 90 kelvin.
TCL: Setting parameter langevinTemp to 90
TCL: Running for 100000 steps
ETITLE: TS BOND ANGLE DIHED IMPRP ELECT VDW BOUNDARY MISC KINETIC TOTAL TEMP POTENTIAL TOTAL3 TEMPAVG PRESSURE GPRESSURE VOLUME PRESSAVG GPRESSAVG
ENERGY: 200000 0.0000 0.0000 0.0000 0.0000 -14277.3981 2430.9185 0.0000 0.0000 359.7092 -11486.7704 61.0091 -11846.4796 -11485.9391 61.0091 -269.4973 -218.4890 29569.8741 -269.4973 -218.4890
ENERGY: 300000 0.0000 0.0000 0.0000 0.0000 -14197.1252 2415.0831 0.0000 0.0000 544.3916 -11237.6505 92.3324 -11782.0422 -11236.2554 90.2333 245.5408 252.8083 28790.0136 4.2938 4.1333
TCL: Running 100000 steps at 120 kelvin.
TCL: Setting parameter langevinTemp to 120
TCL: Running for 100000 steps
ETITLE: TS BOND ANGLE DIHED IMPRP ELECT VDW BOUNDARY MISC KINETIC TOTAL TEMP POTENTIAL TOTAL3 TEMPAVG PRESSURE GPRESSURE VOLUME PRESSAVG GPRESSAVG
ENERGY: 300000 0.0000 0.0000 0.0000 0.0000 -14197.1252 2415.0831 0.0000 0.0000 544.1229 -11237.9193 92.2868 -11782.0422 -11236.8825 92.2868 205.0745 252.8743 28790.0136 205.0745 252.8743
ENERGY: 400000 0.0000 0.0000 0.0000 0.0000 -13851.0643 2229.6858 0.0000 0.0000 712.7942 -10908.5844 120.8946 -11621.3786 -10906.2433 120.1193 -774.2024 -707.9608 28936.1423 1.8865 1.8562
TCL: Running 100000 steps at 150 kelvin.
TCL: Setting parameter langevinTemp to 150
TCL: Running for 100000 steps
ETITLE: TS BOND ANGLE DIHED IMPRP ELECT VDW BOUNDARY MISC KINETIC TOTAL TEMP POTENTIAL TOTAL3 TEMPAVG PRESSURE GPRESSURE VOLUME PRESSAVG GPRESSAVG
ENERGY: 400000 0.0000 0.0000 0.0000 0.0000 -13851.0643 2229.6858 0.0000 0.0000 712.4430 -10908.9356 120.8351 -11621.3786 -10907.5886 120.8351 -757.4791 -707.1002 28936.1423 -757.4791 -707.1002
ENERGY: 500000 0.0000 0.0000 0.0000 0.0000 -13721.9747 2270.1060 0.0000 0.0000 906.8762 -10544.9925 153.8122 -11451.8687 -10543.6652 149.7716 -146.7007 -82.7308 29436.6759 5.5298 5.4147
TCL: Running 100000 steps at 180 kelvin.
TCL: Setting parameter langevinTemp to 180
TCL: Running for 100000 steps
ETITLE: TS BOND ANGLE DIHED IMPRP ELECT VDW BOUNDARY MISC KINETIC TOTAL TEMP POTENTIAL TOTAL3 TEMPAVG PRESSURE GPRESSURE VOLUME PRESSAVG GPRESSAVG
ENERGY: 500000 0.0000 0.0000 0.0000 0.0000 -13721.9747 2270.1060 0.0000 0.0000 906.4238 -10545.4449 153.7355 -11451.8687 -10543.6859 153.7355 -140.2369 -83.2924 29436.6759 -140.2369 -83.2924
ENERGY: 600000 0.0000 0.0000 0.0000 0.0000 -13213.2360 2032.1487 0.0000 0.0000 1064.2522 -10116.8352 180.5042 -11181.0873 -10114.2747 179.7595 -967.6010 -883.8635 29412.4628 3.3306 3.2955
TCL: Running 100000 steps at 210 kelvin.
TCL: Setting parameter langevinTemp to 210
TCL: Running for 100000 steps
ETITLE: TS BOND ANGLE DIHED IMPRP ELECT VDW BOUNDARY MISC KINETIC TOTAL TEMP POTENTIAL TOTAL3 TEMPAVG PRESSURE GPRESSURE VOLUME PRESSAVG GPRESSAVG
ENERGY: 600000 0.0000 0.0000 0.0000 0.0000 -13213.2360 2032.1487 0.0000 0.0000 1063.7284 -10117.3589 180.4154 -11181.0873 -10115.3007 180.4154 -941.7392 -883.7154 29412.4628 -941.7392 -883.7154
ENERGY: 700000 0.0000 0.0000 0.0000 0.0000 -12707.9156 1984.6410 0.0000 0.0000 1245.2837 -9477.9909 211.2084 -10723.2746 -9475.8269 209.5977 378.7643 490.5194 29041.4749 3.2164 3.0715
TCL: Running 100000 steps at 240 kelvin.
TCL: Setting parameter langevinTemp to 240
TCL: Running for 100000 steps
ETITLE: TS BOND ANGLE DIHED IMPRP ELECT VDW BOUNDARY MISC KINETIC TOTAL TEMP POTENTIAL TOTAL3 TEMPAVG PRESSURE GPRESSURE VOLUME PRESSAVG GPRESSAVG
ENERGY: 700000 0.0000 0.0000 0.0000 0.0000 -12707.9156 1984.6410 0.0000 0.0000 1244.6756 -9478.5990 211.1052 -10723.2746 -9476.3158 211.1052 422.7032 489.9920 29041.4749 422.7032 489.9920
ENERGY: 800000 0.0000 0.0000 0.0000 0.0000 -11930.7824 1736.2873 0.0000 0.0000 1447.6836 -8746.8115 245.5367 -10194.4951 -8743.6350 240.1045 -44.9207 -31.7282 29871.6387 3.3676 3.2834
TCL: Running 100000 steps at 270 kelvin.
TCL: Setting parameter langevinTemp to 270
TCL: Running for 100000 steps
ETITLE: TS BOND ANGLE DIHED IMPRP ELECT VDW BOUNDARY MISC KINETIC TOTAL TEMP POTENTIAL TOTAL3 TEMPAVG PRESSURE GPRESSURE VOLUME PRESSAVG GPRESSAVG
ENERGY: 800000 0.0000 0.0000 0.0000 0.0000 -11930.7824 1736.2873 0.0000 0.0000 1446.9715 -8747.5236 245.4160 -10194.4951 -8745.7353 245.4160 -116.1111 -30.9561 29871.6387 -116.1111 -30.9561
ENERGY: 900000 0.0000 0.0000 0.0000 0.0000 -11354.4237 1569.5853 0.0000 0.0000 1595.1276 -8189.7109 270.5442 -9784.8385 -8187.2936 269.8923 -71.9955 45.3672 30278.4979 3.9848 3.9629
TCL: Running 1000000 steps at 300 kelvin.
TCL: Setting parameter langevinTemp to 300
TCL: Running for 1000000 steps
ETITLE: TS BOND ANGLE DIHED IMPRP ELECT VDW BOUNDARY MISC KINETIC TOTAL TEMP POTENTIAL TOTAL3 TEMPAVG PRESSURE GPRESSURE VOLUME PRESSAVG GPRESSAVG
ENERGY: 900000 0.0000 0.0000 0.0000 0.0000 -11354.4237 1569.5853 0.0000 0.0000 1594.3412 -8190.4972 270.4109 -9784.8385 -8188.2466 270.4109 -39.1984 44.3764 30278.4979 -39.1984 44.3764
ENERGY: 1100000 0.0000 0.0000 0.0000 0.0000 -10833.7152 1462.4008 0.0000 0.0000 1744.2233 -7627.0911 295.8319 -9371.3144 -7621.6830 300.0975 -49.6783 41.7781 31256.0168 3.6652 3.6544
ENERGY: 1300000 0.0000 0.0000 0.0000 0.0000 -10906.8742 1476.8496 0.0000 0.0000 1757.1144 -7672.9102 298.0183 -9430.0246 -7668.5833 300.5069 219.4460 334.1050 30733.8463 3.7550 3.9660
ENERGY: 1500000 0.0000 0.0000 0.0000 0.0000 -10870.3098 1493.7477 0.0000 0.0000 1738.0271 -7638.5350 294.7809 -9376.5621 -7635.5473 300.1163 267.2405 375.5002 30997.1469 3.2961 3.1764
ENERGY: 1700000 0.0000 0.0000 0.0000 0.0000 -11062.9875 1551.3064 0.0000 0.0000 1708.0895 -7803.5916 289.7033 -9511.6811 -7801.5435 300.6144 456.4778 613.6106 30635.2521 2.8147 2.8258
ENERGY: 1900000 0.0000 0.0000 0.0000 0.0000 -10776.1707 1395.4757 0.0000 0.0000 1710.4516 -7670.2434 290.1039 -9380.6950 -7669.3430 299.7868 -698.1276 -607.8894 31462.7245 2.8265 2.7187
TCL: Exiting due to exit command.
