Info: SIMULATION PARAMETERS:
Info: TIMESTEP               2
Info: NUMBER OF STEPS        0
Info: STEPS PER CYCLE        10
Info: PERIODIC CELL BASIS 1  37.38 0 0
Info: PERIODIC CELL BASIS 2  0 36.451 0
Info: PERIODIC CELL BASIS 3  0 0 32.993
Info: PERIODIC CELL CENTER   0 0 0
Info: WRAPPING WATERS AROUND PERIODIC BOUNDARIES ON OUTPUT.
Info: WRAPPING ALL CLUSTERS AROUND PERIODIC BOUNDARIES ON OUTPUT.
Info: FIRST LDB TIMESTEP     50
Info: LAST LDB TIMESTEP     -1
Info: HOM BACKGROUND SCALING 1
Info: PME BACKGROUND SCALING 1
Info: MIN ATOMS PER PATCH    40
Info: EMPTY PATCH LOAD       40 ATOMS
Info: INITIAL TEMPERATURE    300
Info: CENTER OF MASS MOVING INITIALLY? NO
Info: DIELECTRIC             1
Info: EXCLUDE                SCALED ONE-FOUR
Info: 1-4 ELECTROSTATICS SCALED BY 0.833333
Info: MODIFIED 1-4 VDW PARAMETERS WILL BE USED
Info: DCD FILENAME           mobley_4780078_equil.dcd
Info: DCD FREQUENCY          100000
Info: DCD FIRST STEP         100000
Info: DCD FILE WILL CONTAIN UNIT CELL DATA
Info: XST FILENAME           mobley_4780078_equil.xst
Info: XST FREQUENCY          100000
Info: NO VELOCITY DCD OUTPUT
Info: NO FORCE DCD OUTPUT
Info: OUTPUT FILENAME        mobley_4780078_equil
Info: BINARY OUTPUT FILES WILL BE USED
Info: RESTART FILENAME       mobley_4780078_equil.restart
Info: RESTART FREQUENCY      100000
Info: BINARY RESTART FILES WILL BE USED
Info: CUTOFF                 9
Info: PAIRLIST DISTANCE      11
Info: PAIRLIST SHRINK RATE   0.01
Info: PAIRLIST GROW RATE     0.01
Info: PAIRLIST TRIGGER       0.3
Info: PAIRLISTS PER CYCLE    2
Info: PAIRLISTS ENABLED
Info: MARGIN                 8
Info: HYDROGEN GROUP CUTOFF  2.5
Info: PATCH DIMENSION        21.5
Info: ENERGY OUTPUT STEPS    100000
Info: ENERGY EVALUATION STEPS    100000
Info: OUTPUT ENERGY PRECISION 4
Info: CROSSTERM ENERGY INCLUDED IN DIHEDRAL
Info: TIMING OUTPUT STEPS    1000000
Info: PRESSURE OUTPUT STEPS  100000
Info: FIXED ATOMS ACTIVE
Info: LANGEVIN DYNAMICS ACTIVE
Info: LANGEVIN TEMPERATURE   30
Info: LANGEVIN USING BBK INTEGRATOR
Info: LANGEVIN DAMPING COEFFICIENT IS 1 INVERSE PS
Info: LANGEVIN DYNAMICS APPLIED TO HYDROGENS
Info: LANGEVIN PISTON PRESSURE CONTROL ACTIVE
Info:        TARGET PRESSURE IS 1.01325 BAR
Info:     OSCILLATION PERIOD IS 50 FS
Info:             DECAY TIME IS 25 FS
Info:     PISTON TEMPERATURE IS 300 K
Info:       PRESSURE CONTROL IS GROUP-BASED
Info:    INITIAL STRAIN RATE IS 0 0 0
Info:       CELL FLUCTUATION IS ISOTROPIC
Info: PARTICLE MESH EWALD (PME) ACTIVE
Info: PME TOLERANCE               1e-06
Info: PME EWALD COEFFICIENT       0.348832
Info: PME INTERPOLATION ORDER     4
Info: PME GRID DIMENSIONS         40 40 36
Info: PME MAXIMUM GRID SPACING    1
Info: FULL ELECTROSTATIC EVALUATION FREQUENCY      2
Info: USING VERLET I (r-RESPA) MTS SCHEME.
Info: C1 SPLITTING OF LONG RANGE ELECTROSTATICS
Info: PLACING ATOMS IN PATCHES BY HYDROGEN GROUPS
Info: RIGID BONDS TO HYDROGEN : ALL
Info:         ERROR TOLERANCE : 1e-08
Info:          MAX ITERATIONS : 100
Info: RIGID WATER USING SETTLE ALGORITHM
Info: RANDOM NUMBER SEED     1743743116
Info: USE HYDROGEN BONDS?    NO
Info: Using AMBER format force field!
Info: AMBER PARM FILE        mobley_4780078.prmtop
Info: COORDINATE PDB         mobley_4780078.pdb
Info: Exclusions will be read from PARM file!
Info: SCNB (VDW SCALING)     2
Info: USING ARITHMETIC MEAN TO COMBINE L-J SIGMA PARAMETERS
Info: BINARY COORDINATES     mobley_4780078_min.coor
Info: SUMMARY OF PARAMETERS:
Info: 8 BONDS
Info: 7 ANGLES
Info:   7 HARMONIC
Info:   0 COSINE-BASED
Info: 4 DIHEDRAL
Info: 0 IMPROPER
Info: 0 CROSSTERM
Info: 0 VDW
Info: 28 VDW_PAIRS
Info: 0 NBTHOLE_PAIRS
Info: STRUCTURE SUMMARY:
Info: 2956 ATOMS
Info: 2956 BONDS
Info: 31 ANGLES
Info: 44 DIHEDRALS
Info: 0 IMPROPERS
Info: 0 CROSSTERMS
Info: 3022 EXCLUSIONS
Info: 19 FIXED ATOMS
Info: 2947 RIGID BONDS
Info: 10 RIGID BONDS BETWEEN FIXED ATOMS
Info: 5874 DEGREES OF FREEDOM
Info: 988 HYDROGEN GROUPS
Info: 4 ATOMS IN LARGEST HYDROGEN GROUP
Info: 988 MIGRATION GROUPS
Info: 4 ATOMS IN LARGEST MIGRATION GROUP
Info: 9 HYDROGEN GROUPS WITH ALL ATOMS FIXED
Info: TOTAL MASS = 17759.8 amu
Info: TOTAL CHARGE = 2.23517e-08 e
Info: MASS DENSITY = 0.656036 g/cm^3
Info: ATOM DENSITY = 0.0657558 atoms/A^3
Info: ADDED 0 IMPLICIT EXCLUSIONS
Info: NONBONDED TABLE R-SQUARED SPACING: 0.0625
Info: NONBONDED TABLE SIZE: 705 POINTS
Info: REMOVING COM VELOCITY -0.00149534 -0.0341126 0.0871458
TCL: Running for 100000 steps
ETITLE: TS BOND ANGLE DIHED IMPRP ELECT VDW BOUNDARY MISC KINETIC TOTAL TEMP POTENTIAL TOTAL3 TEMPAVG PRESSURE GPRESSURE VOLUME PRESSAVG GPRESSAVG
ENERGY: 0 0.0000 0.0000 0.0000 0.0000 -13688.4472 2398.9590 0.0000 0.0000 1731.4670 -9558.0212 296.6680 -11289.4882 -9557.6770 296.6680 387.7556 422.7498 44954.2288 387.7556 422.7498
ENERGY: 100000 0.0000 0.0000 0.0000 0.0000 -14264.1896 2472.5066 0.0000 0.0000 178.0573 -11613.6257 30.5082 -11791.6830 -11613.0939 30.9045 -21.0148 15.5044 29288.0623 3.4482 3.5015
TCL: Running 100000 steps at 60 kelvin.
TCL: Setting parameter langevinTemp to 60
TCL: Running for 100000 steps
ETITLE: TS BOND ANGLE DIHED IMPRP ELECT VDW BOUNDARY MISC KINETIC TOTAL TEMP POTENTIAL TOTAL3 TEMPAVG PRESSURE GPRESSURE VOLUME PRESSAVG GPRESSAVG
ENERGY: 100000 0.0000 0.0000 0.0000 0.0000 -14264.1896 2472.5066 0.0000 0.0000 177.9701 -11613.7129 30.4932 -11791.6830 -11613.3131 30.4932 -33.0171 15.5968 29288.0623 -33.0171 15.5968
ENERGY: 200000 0.0000 0.0000 0.0000 0.0000 -14177.2423 2462.5912 0.0000 0.0000 350.0958 -11364.5553 59.9851 -11714.6510 -11363.7230 59.9502 201.2163 251.9807 28919.0993 4.6016 4.6417
TCL: Running 100000 steps at 90 kelvin.
TCL: Setting parameter langevinTemp to 90
TCL: Running for 100000 steps
ETITLE: TS BOND ANGLE DIHED IMPRP ELECT VDW BOUNDARY MISC KINETIC TOTAL TEMP POTENTIAL TOTAL3 TEMPAVG PRESSURE GPRESSURE VOLUME PRESSAVG GPRESSAVG
ENERGY: 200000 0.0000 0.0000 0.0000 0.0000 -14177.2423 2462.5912 0.0000 0.0000 349.9278 -11364.7232 59.9563 -11714.6510 -11364.0298 59.9563 193.3140 251.9501 28919.0993 193.3140 251.9501
ENERGY: 300000 0.0000 0.0000 0.0000 0.0000 -14040.4440 2418.4655 0.0000 0.0000 535.7855 -11086.1929 91.8010 -11621.9784 -11085.3263 89.9119 369.5305 381.9568 28732.1854 3.6144 3.5993
TCL: Running 100000 steps at 120 kelvin.
TCL: Setting parameter langevinTemp to 120
TCL: Running for 100000 steps
ETITLE: TS BOND ANGLE DIHED IMPRP ELECT VDW BOUNDARY MISC KINETIC TOTAL TEMP POTENTIAL TOTAL3 TEMPAVG PRESSURE GPRESSURE VOLUME PRESSAVG GPRESSAVG
ENERGY: 300000 0.0000 0.0000 0.0000 0.0000 -14040.4440 2418.4655 0.0000 0.0000 535.5246 -11086.4539 91.7563 -11621.9784 -11085.4514 91.7563 328.5375 382.1337 28732.1854 328.5375 382.1337
ENERGY: 400000 0.0000 0.0000 0.0000 0.0000 -13669.4699 2154.8783 0.0000 0.0000 688.4283 -10826.1633 117.9547 -11514.5916 -10824.4638 120.0796 -1452.4842 -1425.2573 28952.4835 3.6330 3.7231
TCL: Running 100000 steps at 150 kelvin.
TCL: Setting parameter langevinTemp to 150
TCL: Running for 100000 steps
ETITLE: TS BOND ANGLE DIHED IMPRP ELECT VDW BOUNDARY MISC KINETIC TOTAL TEMP POTENTIAL TOTAL3 TEMPAVG PRESSURE GPRESSURE VOLUME PRESSAVG GPRESSAVG
ENERGY: 400000 0.0000 0.0000 0.0000 0.0000 -13669.4699 2154.8783 0.0000 0.0000 688.0716 -10826.5201 117.8936 -11514.5916 -10824.9190 117.8936 -1468.9896 -1426.0545 28952.4835 -1468.9896 -1426.0545
ENERGY: 500000 0.0000 0.0000 0.0000 0.0000 -13555.2189 2221.7607 0.0000 0.0000 853.2259 -10480.2324 146.1909 -11333.4583 -10477.7659 150.0279 -264.2242 -189.5161 28736.8999 2.9236 2.8252
TCL: Running 100000 steps at 180 kelvin.
TCL: Setting parameter langevinTemp to 180
TCL: Running for 100000 steps
ETITLE: TS BOND ANGLE DIHED IMPRP ELECT VDW BOUNDARY MISC KINETIC TOTAL TEMP POTENTIAL TOTAL3 TEMPAVG PRESSURE GPRESSURE VOLUME PRESSAVG GPRESSAVG
ENERGY: 500000 0.0000 0.0000 0.0000 0.0000 -13555.2189 2221.7607 0.0000 0.0000 852.7988 -10480.6595 146.1178 -11333.4583 -10479.1893 146.1178 -243.9504 -189.5569 28736.8999 -243.9504 -189.5569
ENERGY: 600000 0.0000 0.0000 0.0000 0.0000 -13007.8155 1987.0933 0.0000 0.0000 1039.0222 -9981.7001 178.0251 -11020.7223 -9978.0276 180.1059 -1254.7234 -1206.2340 29534.2974 3.7091 3.7187
TCL: Running 100000 steps at 210 kelvin.
TCL: Setting parameter langevinTemp to 210
TCL: Running for 100000 steps
ETITLE: TS BOND ANGLE DIHED IMPRP ELECT VDW BOUNDARY MISC KINETIC TOTAL TEMP POTENTIAL TOTAL3 TEMPAVG PRESSURE GPRESSURE VOLUME PRESSAVG GPRESSAVG
ENERGY: 600000 0.0000 0.0000 0.0000 0.0000 -13007.8155 1987.0933 0.0000 0.0000 1038.5083 -9982.2140 177.9371 -11020.7223 -9980.1867 177.9371 -1270.2767 -1205.9704 29534.2974 -1270.2767 -1205.9704
ENERGY: 700000 0.0000 0.0000 0.0000 0.0000 -12301.1775 1773.3785 0.0000 0.0000 1251.9231 -9275.8759 214.5034 -10527.7990 -9272.0135 209.6734 -760.5785 -656.9032 28658.2164 3.6258 3.5255
TCL: Running 100000 steps at 240 kelvin.
TCL: Setting parameter langevinTemp to 240
TCL: Running for 100000 steps
ETITLE: TS BOND ANGLE DIHED IMPRP ELECT VDW BOUNDARY MISC KINETIC TOTAL TEMP POTENTIAL TOTAL3 TEMPAVG PRESSURE GPRESSURE VOLUME PRESSAVG GPRESSAVG
ENERGY: 700000 0.0000 0.0000 0.0000 0.0000 -12301.1775 1773.3785 0.0000 0.0000 1251.2985 -9276.5005 214.3963 -10527.7990 -9274.4095 214.3963 -741.9457 -657.4926 28658.2164 -741.9457 -657.4926
ENERGY: 800000 0.0000 0.0000 0.0000 0.0000 -11875.1789 1770.3879 0.0000 0.0000 1410.5178 -8694.2733 241.6768 -10104.7910 -8691.8123 239.3170 616.3340 639.8124 28962.5609 3.2386 3.1130
TCL: Running 100000 steps at 270 kelvin.
TCL: Setting parameter langevinTemp to 270
TCL: Running for 100000 steps
ETITLE: TS BOND ANGLE DIHED IMPRP ELECT VDW BOUNDARY MISC KINETIC TOTAL TEMP POTENTIAL TOTAL3 TEMPAVG PRESSURE GPRESSURE VOLUME PRESSAVG GPRESSAVG
ENERGY: 800000 0.0000 0.0000 0.0000 0.0000 -11875.1789 1770.3879 0.0000 0.0000 1409.8080 -8694.9830 241.5552 -10104.7910 -8692.8861 241.5552 551.9184 640.6937 28962.5609 551.9184 640.6937
ENERGY: 900000 0.0000 0.0000 0.0000 0.0000 -11116.1313 1507.4549 0.0000 0.0000 1591.2247 -8017.4518 272.6390 -9608.6764 -8015.0609 269.9450 -325.8903 -203.1154 30074.1464 2.5066 2.4449
TCL: Running 1000000 steps at 300 kelvin.
TCL: Setting parameter langevinTemp to 300
TCL: Running for 1000000 steps
ETITLE: TS BOND ANGLE DIHED IMPRP ELECT VDW BOUNDARY MISC KINETIC TOTAL TEMP POTENTIAL TOTAL3 TEMPAVG PRESSURE GPRESSURE VOLUME PRESSAVG GPRESSAVG
ENERGY: 900000 0.0000 0.0000 0.0000 0.0000 -11116.1313 1507.4549 0.0000 0.0000 1590.3918 -8018.2846 272.4963 -9608.6764 -8015.9993 272.4963 -286.7626 -204.5772 30074.1464 -286.7626 -204.5772
ENERGY: 1100000 0.0000 0.0000 0.0000 0.0000 -10810.5386 1437.8253 0.0000 0.0000 1746.4951 -7626.2182 299.2429 -9372.7133 -7623.0427 300.5306 -310.7656 -269.2228 30647.4060 4.0262 3.9398
ENERGY: 1300000 0.0000 0.0000 0.0000 0.0000 -10708.3378 1429.9343 0.0000 0.0000 1724.4015 -7554.0020 295.4574 -9278.4036 -7551.5229 301.1727 250.2934 266.5217 30026.7565 4.1066 4.0439
ENERGY: 1500000 0.0000 0.0000 0.0000 0.0000 -10749.4899 1444.5623 0.0000 0.0000 1812.3757 -7492.5519 310.5308 -9304.9276 -7487.1947 300.0873 166.8669 202.3854 30476.4189 3.3019 3.2989
ENERGY: 1700000 0.0000 0.0000 0.0000 0.0000 -10653.1259 1371.1589 0.0000 0.0000 1814.0192 -7467.9477 310.8124 -9281.9669 -7464.2603 299.4682 -569.5852 -479.5952 30815.9030 3.2896 3.0865
ENERGY: 1900000 0.0000 0.0000 0.0000 0.0000 -10718.0938 1468.0793 0.0000 0.0000 1760.0624 -7489.9522 301.5675 -9250.0145 -7486.0923 299.2880 482.7643 595.9980 30293.7354 2.9314 2.8307
TCL: Exiting due to exit command.
