Info: SIMULATION PARAMETERS:
Info: TIMESTEP               2
Info: NUMBER OF STEPS        0
Info: STEPS PER CYCLE        10
Info: PERIODIC CELL BASIS 1  36.005 0 0
Info: PERIODIC CELL BASIS 2  0 35.779 0
Info: PERIODIC CELL BASIS 3  0 0 34.471
Info: PERIODIC CELL CENTER   0 0 0
Info: WRAPPING WATERS AROUND PERIODIC BOUNDARIES ON OUTPUT.
Info: WRAPPING ALL CLUSTERS AROUND PERIODIC BOUNDARIES ON OUTPUT.
Info: FIRST LDB TIMESTEP     50
Info: LAST LDB TIMESTEP     -1
Info: HOM BACKGROUND SCALING 1
Info: PME BACKGROUND SCALING 1
Info: MIN ATOMS PER PATCH    40
Info: EMPTY PATCH LOAD       40 ATOMS
Info: INITIAL TEMPERATURE    300
Info: CENTER OF MASS MOVING INITIALLY? NO
Info: DIELECTRIC             1
Info: EXCLUDE                SCALED ONE-FOUR
Info: 1-4 ELECTROSTATICS SCALED BY 0.833333
Info: MODIFIED 1-4 VDW PARAMETERS WILL BE USED
Info: DCD FILENAME           mobley_8006582_equil.dcd
Info: DCD FREQUENCY          100000
Info: DCD FIRST STEP         100000
Info: DCD FILE WILL CONTAIN UNIT CELL DATA
Info: XST FILENAME           mobley_8006582_equil.xst
Info: XST FREQUENCY          100000
Info: NO VELOCITY DCD OUTPUT
Info: NO FORCE DCD OUTPUT
Info: OUTPUT FILENAME        mobley_8006582_equil
Info: BINARY OUTPUT FILES WILL BE USED
Info: RESTART FILENAME       mobley_8006582_equil.restart
Info: RESTART FREQUENCY      100000
Info: BINARY RESTART FILES WILL BE USED
Info: CUTOFF                 9
Info: PAIRLIST DISTANCE      11
Info: PAIRLIST SHRINK RATE   0.01
Info: PAIRLIST GROW RATE     0.01
Info: PAIRLIST TRIGGER       0.3
Info: PAIRLISTS PER CYCLE    2
Info: PAIRLISTS ENABLED
Info: MARGIN                 8
Info: HYDROGEN GROUP CUTOFF  2.5
Info: PATCH DIMENSION        21.5
Info: ENERGY OUTPUT STEPS    100000
Info: ENERGY EVALUATION STEPS    100000
Info: OUTPUT ENERGY PRECISION 4
Info: CROSSTERM ENERGY INCLUDED IN DIHEDRAL
Info: TIMING OUTPUT STEPS    1000000
Info: PRESSURE OUTPUT STEPS  100000
Info: FIXED ATOMS ACTIVE
Info: LANGEVIN DYNAMICS ACTIVE
Info: LANGEVIN TEMPERATURE   30
Info: LANGEVIN USING BBK INTEGRATOR
Info: LANGEVIN DAMPING COEFFICIENT IS 1 INVERSE PS
Info: LANGEVIN DYNAMICS APPLIED TO HYDROGENS
Info: LANGEVIN PISTON PRESSURE CONTROL ACTIVE
Info:        TARGET PRESSURE IS 1.01325 BAR
Info:     OSCILLATION PERIOD IS 50 FS
Info:             DECAY TIME IS 25 FS
Info:     PISTON TEMPERATURE IS 300 K
Info:       PRESSURE CONTROL IS GROUP-BASED
Info:    INITIAL STRAIN RATE IS 0 0 0
Info:       CELL FLUCTUATION IS ISOTROPIC
Info: PARTICLE MESH EWALD (PME) ACTIVE
Info: PME TOLERANCE               1e-06
Info: PME EWALD COEFFICIENT       0.348832
Info: PME INTERPOLATION ORDER     4
Info: PME GRID DIMENSIONS         40 36 36
Info: PME MAXIMUM GRID SPACING    1
Info: FULL ELECTROSTATIC EVALUATION FREQUENCY      2
Info: USING VERLET I (r-RESPA) MTS SCHEME.
Info: C1 SPLITTING OF LONG RANGE ELECTROSTATICS
Info: PLACING ATOMS IN PATCHES BY HYDROGEN GROUPS
Info: RIGID BONDS TO HYDROGEN : ALL
Info:         ERROR TOLERANCE : 1e-08
Info:          MAX ITERATIONS : 100
Info: RIGID WATER USING SETTLE ALGORITHM
Info: RANDOM NUMBER SEED     1743738912
Info: USE HYDROGEN BONDS?    NO
Info: Using AMBER format force field!
Info: AMBER PARM FILE        mobley_8006582.prmtop
Info: COORDINATE PDB         mobley_8006582.pdb
Info: Exclusions will be read from PARM file!
Info: SCNB (VDW SCALING)     2
Info: USING ARITHMETIC MEAN TO COMBINE L-J SIGMA PARAMETERS
Info: BINARY COORDINATES     mobley_8006582_min.coor
Info: SUMMARY OF PARAMETERS:
Info: 4 BONDS
Info: 3 ANGLES
Info:   3 HARMONIC
Info:   0 COSINE-BASED
Info: 5 DIHEDRAL
Info: 0 IMPROPER
Info: 0 CROSSTERM
Info: 0 VDW
Info: 10 VDW_PAIRS
Info: 0 NBTHOLE_PAIRS
Info: STRUCTURE SUMMARY:
Info: 2916 ATOMS
Info: 2916 BONDS
Info: 30 ANGLES
Info: 55 DIHEDRALS
Info: 0 IMPROPERS
Info: 0 CROSSTERMS
Info: 2986 EXCLUSIONS
Info: 15 FIXED ATOMS
Info: 2911 RIGID BONDS
Info: 10 RIGID BONDS BETWEEN FIXED ATOMS
Info: 5802 DEGREES OF FREEDOM
Info: 972 HYDROGEN GROUPS
Info: 3 ATOMS IN LARGEST HYDROGEN GROUP
Info: 972 MIGRATION GROUPS
Info: 3 ATOMS IN LARGEST MIGRATION GROUP
Info: 5 HYDROGEN GROUPS WITH ALL ATOMS FIXED
Info: TOTAL MASS = 17491.6 amu
Info: TOTAL CHARGE = -0.000499971 e
Info: MASS DENSITY = 0.6541 g/cm^3
Info: ATOM DENSITY = 0.0656663 atoms/A^3
Info: ADDED 0 IMPLICIT EXCLUSIONS
Info: NONBONDED TABLE R-SQUARED SPACING: 0.0625
Info: NONBONDED TABLE SIZE: 705 POINTS
Info: REMOVING COM VELOCITY -0.042835 0.15775 -0.0244752
TCL: Running for 100000 steps
ETITLE: TS BOND ANGLE DIHED IMPRP ELECT VDW BOUNDARY MISC KINETIC TOTAL TEMP POTENTIAL TOTAL3 TEMPAVG PRESSURE GPRESSURE VOLUME PRESSAVG GPRESSAVG
ENERGY: 0 0.0000 0.0000 0.0000 0.0000 -13517.6836 2384.4242 0.0000 0.0000 1761.5383 -9371.7211 305.5658 -11133.2594 -9371.3804 305.5658 570.5970 594.5713 44406.3314 570.5970 594.5713
ENERGY: 100000 0.0000 0.0000 0.0000 0.0000 -13989.9150 2463.2419 0.0000 0.0000 176.9615 -11349.7115 30.6967 -11526.6731 -11349.1552 30.8007 359.5301 404.5595 29159.5672 4.4500 4.4613
TCL: Running 100000 steps at 60 kelvin.
TCL: Setting parameter langevinTemp to 60
TCL: Running for 100000 steps
ETITLE: TS BOND ANGLE DIHED IMPRP ELECT VDW BOUNDARY MISC KINETIC TOTAL TEMP POTENTIAL TOTAL3 TEMPAVG PRESSURE GPRESSURE VOLUME PRESSAVG GPRESSAVG
ENERGY: 100000 0.0000 0.0000 0.0000 0.0000 -13989.9150 2463.2419 0.0000 0.0000 176.8761 -11349.7969 30.6819 -11526.6731 -11349.4381 30.6819 353.6802 404.6317 29159.5672 353.6802 404.6317
ENERGY: 200000 0.0000 0.0000 0.0000 0.0000 -13919.5327 2399.7425 0.0000 0.0000 341.7163 -11178.0740 59.2759 -11519.7902 -11177.2928 59.9630 -19.6338 13.9660 28821.0062 4.0049 4.0449
TCL: Running 100000 steps at 90 kelvin.
TCL: Setting parameter langevinTemp to 90
TCL: Running for 100000 steps
ETITLE: TS BOND ANGLE DIHED IMPRP ELECT VDW BOUNDARY MISC KINETIC TOTAL TEMP POTENTIAL TOTAL3 TEMPAVG PRESSURE GPRESSURE VOLUME PRESSAVG GPRESSAVG
ENERGY: 200000 0.0000 0.0000 0.0000 0.0000 -13919.5327 2399.7425 0.0000 0.0000 341.5420 -11178.2482 59.2457 -11519.7902 -11177.4072 59.2457 -34.1426 13.6949 28821.0062 -34.1426 13.6949
ENERGY: 300000 0.0000 0.0000 0.0000 0.0000 -13678.4600 2267.9710 0.0000 0.0000 514.9441 -10895.5450 89.3249 -11410.4890 -10894.5669 90.0691 -630.7465 -577.3055 28731.6064 3.7570 3.8228
TCL: Running 100000 steps at 120 kelvin.
TCL: Setting parameter langevinTemp to 120
TCL: Running for 100000 steps
ETITLE: TS BOND ANGLE DIHED IMPRP ELECT VDW BOUNDARY MISC KINETIC TOTAL TEMP POTENTIAL TOTAL3 TEMPAVG PRESSURE GPRESSURE VOLUME PRESSAVG GPRESSAVG
ENERGY: 300000 0.0000 0.0000 0.0000 0.0000 -13678.4600 2267.9710 0.0000 0.0000 514.6815 -10895.8075 89.2794 -11410.4890 -10894.5411 89.2794 -633.4662 -577.2504 28731.6064 -633.4662 -577.2504
ENERGY: 400000 0.0000 0.0000 0.0000 0.0000 -13445.0340 2178.5142 0.0000 0.0000 698.0303 -10568.4895 121.0841 -11266.5198 -10566.8550 120.0601 -911.1531 -827.8058 28955.5751 4.7663 4.9026
TCL: Running 100000 steps at 150 kelvin.
TCL: Setting parameter langevinTemp to 150
TCL: Running for 100000 steps
ETITLE: TS BOND ANGLE DIHED IMPRP ELECT VDW BOUNDARY MISC KINETIC TOTAL TEMP POTENTIAL TOTAL3 TEMPAVG PRESSURE GPRESSURE VOLUME PRESSAVG GPRESSAVG
ENERGY: 400000 0.0000 0.0000 0.0000 0.0000 -13445.0340 2178.5142 0.0000 0.0000 697.6840 -10568.8358 121.0240 -11266.5198 -10567.0893 121.0240 -889.5854 -828.2918 28955.5751 -889.5854 -828.2918
ENERGY: 500000 0.0000 0.0000 0.0000 0.0000 -13297.1805 2173.7104 0.0000 0.0000 844.5728 -10278.8973 146.5041 -11123.4701 -10275.6472 149.9371 -428.9350 -363.0373 28736.1138 2.8282 2.9121
TCL: Running 100000 steps at 180 kelvin.
TCL: Setting parameter langevinTemp to 180
TCL: Running for 100000 steps
ETITLE: TS BOND ANGLE DIHED IMPRP ELECT VDW BOUNDARY MISC KINETIC TOTAL TEMP POTENTIAL TOTAL3 TEMPAVG PRESSURE GPRESSURE VOLUME PRESSAVG GPRESSAVG
ENERGY: 500000 0.0000 0.0000 0.0000 0.0000 -13297.1805 2173.7104 0.0000 0.0000 844.1581 -10279.3120 146.4322 -11123.4701 -10277.6968 146.4322 -419.6876 -360.4693 28736.1138 -419.6876 -360.4693
ENERGY: 600000 0.0000 0.0000 0.0000 0.0000 -12869.0853 1998.2308 0.0000 0.0000 1025.7119 -9845.1426 177.9254 -10870.8545 -9842.4254 179.9416 -745.6826 -754.2572 28370.7372 3.8892 3.9889
TCL: Running 100000 steps at 210 kelvin.
TCL: Setting parameter langevinTemp to 210
TCL: Running for 100000 steps
ETITLE: TS BOND ANGLE DIHED IMPRP ELECT VDW BOUNDARY MISC KINETIC TOTAL TEMP POTENTIAL TOTAL3 TEMPAVG PRESSURE GPRESSURE VOLUME PRESSAVG GPRESSAVG
ENERGY: 600000 0.0000 0.0000 0.0000 0.0000 -12869.0853 1998.2308 0.0000 0.0000 1025.1815 -9845.6730 177.8334 -10870.8545 -9843.6477 177.8334 -808.9455 -754.5711 28370.7372 -808.9455 -754.5711
ENERGY: 700000 0.0000 0.0000 0.0000 0.0000 -12251.3336 1824.1633 0.0000 0.0000 1250.4725 -9176.6979 216.9136 -10427.1704 -9175.3144 210.1190 -612.2988 -583.5016 28766.1065 4.8803 4.8158
TCL: Running 100000 steps at 240 kelvin.
TCL: Setting parameter langevinTemp to 240
TCL: Running for 100000 steps
ETITLE: TS BOND ANGLE DIHED IMPRP ELECT VDW BOUNDARY MISC KINETIC TOTAL TEMP POTENTIAL TOTAL3 TEMPAVG PRESSURE GPRESSURE VOLUME PRESSAVG GPRESSAVG
ENERGY: 700000 0.0000 0.0000 0.0000 0.0000 -12251.3336 1824.1633 0.0000 0.0000 1249.8911 -9177.2792 216.8128 -10427.1704 -9175.3920 216.8128 -661.4520 -584.0551 28766.1065 -661.4520 -584.0551
ENERGY: 800000 0.0000 0.0000 0.0000 0.0000 -11563.3013 1654.7988 0.0000 0.0000 1347.8224 -8560.6801 233.8004 -9908.5026 -8556.6269 239.3186 -134.8064 -93.6419 28645.2982 2.2679 2.5231
TCL: Running 100000 steps at 270 kelvin.
TCL: Setting parameter langevinTemp to 270
TCL: Running for 100000 steps
ETITLE: TS BOND ANGLE DIHED IMPRP ELECT VDW BOUNDARY MISC KINETIC TOTAL TEMP POTENTIAL TOTAL3 TEMPAVG PRESSURE GPRESSURE VOLUME PRESSAVG GPRESSAVG
ENERGY: 800000 0.0000 0.0000 0.0000 0.0000 -11563.3013 1654.7988 0.0000 0.0000 1347.1376 -8561.3650 233.6816 -9908.5026 -8559.5134 233.6816 -197.6532 -93.0440 28645.2982 -197.6532 -93.0440
ENERGY: 900000 0.0000 0.0000 0.0000 0.0000 -11096.1570 1539.0533 0.0000 0.0000 1551.1119 -8005.9918 269.0641 -9557.1037 -8002.7032 269.3871 125.8769 219.0570 28702.9701 2.7850 2.7062
TCL: Running 1000000 steps at 300 kelvin.
TCL: Setting parameter langevinTemp to 300
TCL: Running for 1000000 steps
ETITLE: TS BOND ANGLE DIHED IMPRP ELECT VDW BOUNDARY MISC KINETIC TOTAL TEMP POTENTIAL TOTAL3 TEMPAVG PRESSURE GPRESSURE VOLUME PRESSAVG GPRESSAVG
ENERGY: 900000 0.0000 0.0000 0.0000 0.0000 -11096.1570 1539.0533 0.0000 0.0000 1550.3162 -8006.7875 268.9261 -9557.1037 -8004.5835 268.9261 130.0612 218.8930 28702.9701 130.0612 218.8930
ENERGY: 1100000 0.0000 0.0000 0.0000 0.0000 -10588.3025 1446.7033 0.0000 0.0000 1799.9828 -7341.6165 312.2346 -9141.5993 -7337.8535 299.9555 211.3093 260.0530 30236.5561 1.9799 2.1350
ENERGY: 1300000 0.0000 0.0000 0.0000 0.0000 -10564.3694 1429.9937 0.0000 0.0000 1749.9274 -7384.4483 303.5517 -9134.3757 -7381.7879 300.7152 136.2489 168.5293 30046.1676 2.9216 2.9873
ENERGY: 1500000 0.0000 0.0000 0.0000 0.0000 -10685.7191 1465.1090 0.0000 0.0000 1760.4704 -7460.1397 305.3806 -9220.6102 -7458.6895 300.6191 64.2219 115.1201 30083.9081 3.5011 3.3115
ENERGY: 1700000 0.0000 0.0000 0.0000 0.0000 -10511.4188 1379.4104 0.0000 0.0000 1669.5248 -7462.4837 289.6046 -9132.0084 -7459.1769 299.6927 -481.6623 -390.0586 30406.5287 2.6970 2.5919
ENERGY: 1900000 0.0000 0.0000 0.0000 0.0000 -10512.5150 1348.8881 0.0000 0.0000 1780.9268 -7382.7002 308.9290 -9163.6270 -7377.3090 300.6358 -540.7064 -485.6914 30088.1257 3.1399 3.0582
TCL: Exiting due to exit command.
