Info: SIMULATION PARAMETERS:
Info: TIMESTEP               2
Info: NUMBER OF STEPS        0
Info: STEPS PER CYCLE        10
Info: PERIODIC CELL BASIS 1  36.592 0 0
Info: PERIODIC CELL BASIS 2  0 34.696 0
Info: PERIODIC CELL BASIS 3  0 0 34.68
Info: PERIODIC CELL CENTER   0 0 0
Info: WRAPPING WATERS AROUND PERIODIC BOUNDARIES ON OUTPUT.
Info: WRAPPING ALL CLUSTERS AROUND PERIODIC BOUNDARIES ON OUTPUT.
Info: FIRST LDB TIMESTEP     50
Info: LAST LDB TIMESTEP     -1
Info: HOM BACKGROUND SCALING 1
Info: PME BACKGROUND SCALING 1
Info: MIN ATOMS PER PATCH    40
Info: EMPTY PATCH LOAD       40 ATOMS
Info: INITIAL TEMPERATURE    300
Info: CENTER OF MASS MOVING INITIALLY? NO
Info: DIELECTRIC             1
Info: EXCLUDE                SCALED ONE-FOUR
Info: 1-4 ELECTROSTATICS SCALED BY 0.833333
Info: MODIFIED 1-4 VDW PARAMETERS WILL BE USED
Info: DCD FILENAME           mobley_9838013_equil.dcd
Info: DCD FREQUENCY          100000
Info: DCD FIRST STEP         100000
Info: DCD FILE WILL CONTAIN UNIT CELL DATA
Info: XST FILENAME           mobley_9838013_equil.xst
Info: XST FREQUENCY          100000
Info: NO VELOCITY DCD OUTPUT
Info: NO FORCE DCD OUTPUT
Info: OUTPUT FILENAME        mobley_9838013_equil
Info: BINARY OUTPUT FILES WILL BE USED
Info: RESTART FILENAME       mobley_9838013_equil.restart
Info: RESTART FREQUENCY      100000
Info: BINARY RESTART FILES WILL BE USED
Info: CUTOFF                 9
Info: PAIRLIST DISTANCE      11
Info: PAIRLIST SHRINK RATE   0.01
Info: PAIRLIST GROW RATE     0.01
Info: PAIRLIST TRIGGER       0.3
Info: PAIRLISTS PER CYCLE    2
Info: PAIRLISTS ENABLED
Info: MARGIN                 8
Info: HYDROGEN GROUP CUTOFF  2.5
Info: PATCH DIMENSION        21.5
Info: ENERGY OUTPUT STEPS    100000
Info: ENERGY EVALUATION STEPS    100000
Info: OUTPUT ENERGY PRECISION 4
Info: CROSSTERM ENERGY INCLUDED IN DIHEDRAL
Info: TIMING OUTPUT STEPS    1000000
Info: PRESSURE OUTPUT STEPS  100000
Info: FIXED ATOMS ACTIVE
Info: LANGEVIN DYNAMICS ACTIVE
Info: LANGEVIN TEMPERATURE   30
Info: LANGEVIN USING BBK INTEGRATOR
Info: LANGEVIN DAMPING COEFFICIENT IS 1 INVERSE PS
Info: LANGEVIN DYNAMICS APPLIED TO HYDROGENS
Info: LANGEVIN PISTON PRESSURE CONTROL ACTIVE
Info:        TARGET PRESSURE IS 1.01325 BAR
Info:     OSCILLATION PERIOD IS 50 FS
Info:             DECAY TIME IS 25 FS
Info:     PISTON TEMPERATURE IS 300 K
Info:       PRESSURE CONTROL IS GROUP-BASED
Info:    INITIAL STRAIN RATE IS 0 0 0
Info:       CELL FLUCTUATION IS ISOTROPIC
Info: PARTICLE MESH EWALD (PME) ACTIVE
Info: PME TOLERANCE               1e-06
Info: PME EWALD COEFFICIENT       0.348832
Info: PME INTERPOLATION ORDER     4
Info: PME GRID DIMENSIONS         40 36 36
Info: PME MAXIMUM GRID SPACING    1
Info: FULL ELECTROSTATIC EVALUATION FREQUENCY      2
Info: USING VERLET I (r-RESPA) MTS SCHEME.
Info: C1 SPLITTING OF LONG RANGE ELECTROSTATICS
Info: PLACING ATOMS IN PATCHES BY HYDROGEN GROUPS
Info: RIGID BONDS TO HYDROGEN : ALL
Info:         ERROR TOLERANCE : 1e-08
Info:          MAX ITERATIONS : 100
Info: RIGID WATER USING SETTLE ALGORITHM
Info: RANDOM NUMBER SEED     1744093599
Info: USE HYDROGEN BONDS?    NO
Info: Using AMBER format force field!
Info: AMBER PARM FILE        mobley_9838013.prmtop
Info: COORDINATE PDB         mobley_9838013.pdb
Info: Exclusions will be read from PARM file!
Info: SCNB (VDW SCALING)     2
Info: USING ARITHMETIC MEAN TO COMBINE L-J SIGMA PARAMETERS
Info: BINARY COORDINATES     mobley_9838013_min.coor
Info: SUMMARY OF PARAMETERS:
Info: 6 BONDS
Info: 5 ANGLES
Info: 8 DIHEDRAL
Info: 0 IMPROPER
Info: 0 CROSSTERM
Info: 0 VDW
Info: 15 VDW_PAIRS
Info: 0 NBTHOLE_PAIRS
Info: STRUCTURE SUMMARY:
Info: 2958 ATOMS
Info: 2957 BONDS
Info: 31 ANGLES
Info: 54 DIHEDRALS
Info: 0 IMPROPERS
Info: 0 CROSSTERMS
Info: 3027 EXCLUSIONS
Info: 18 FIXED ATOMS
Info: 2952 RIGID BONDS
Info: 12 RIGID BONDS BETWEEN FIXED ATOMS
Info: 5880 DEGREES OF FREEDOM
Info: 986 HYDROGEN GROUPS
Info: 4 ATOMS IN LARGEST HYDROGEN GROUP
Info: 986 MIGRATION GROUPS
Info: 4 ATOMS IN LARGEST MIGRATION GROUP
Info: 6 HYDROGEN GROUPS WITH ALL ATOMS FIXED
Info: TOTAL MASS = 17743.8 amu
Info: TOTAL CHARGE = 3.72529e-08 e
Info: MASS DENSITY = 0.669209 g/cm^3
Info: ATOM DENSITY = 0.0671821 atoms/A^3
Info: ADDED 0 IMPLICIT EXCLUSIONS
Info: NONBONDED TABLE R-SQUARED SPACING: 0.0625
Info: NONBONDED TABLE SIZE: 705 POINTS
Info: REMOVING COM VELOCITY -0.0471503 -0.0908173 0.163856
TCL: Running for 100000 steps
ETITLE: TS BOND ANGLE DIHED IMPRP ELECT VDW BOUNDARY MISC KINETIC TOTAL TEMP POTENTIAL TOTAL3 TEMPAVG PRESSURE GPRESSURE VOLUME PRESSAVG GPRESSAVG
ENERGY: 0 0.0000 0.0000 0.0000 0.0000 -13699.6718 2413.8813 0.0000 0.0000 1773.6778 -9512.1128 303.5902 -11285.7905 -9511.7427 303.5902 501.7251 544.6463 44029.5904 501.7251 544.6463
ENERGY: 100000 0.0000 0.0000 0.0000 0.0000 -14202.0959 2446.9881 0.0000 0.0000 174.0777 -11581.0301 29.7959 -11755.1078 -11580.5246 30.9608 -196.2994 -140.5032 29557.6938 3.8095 3.8125
TCL: Running 100000 steps at 60 kelvin.
TCL: Setting parameter langevinTemp to 60
TCL: Running for 100000 steps
ETITLE: TS BOND ANGLE DIHED IMPRP ELECT VDW BOUNDARY MISC KINETIC TOTAL TEMP POTENTIAL TOTAL3 TEMPAVG PRESSURE GPRESSURE VOLUME PRESSAVG GPRESSAVG
ENERGY: 100000 0.0000 0.0000 0.0000 0.0000 -14202.0959 2446.9881 0.0000 0.0000 173.9879 -11581.1199 29.7805 -11755.1078 -11580.7002 29.7805 -201.6576 -140.5375 29557.6938 -201.6576 -140.5375
ENERGY: 200000 0.0000 0.0000 0.0000 0.0000 -14005.6297 2323.9271 0.0000 0.0000 346.3589 -11335.3437 59.2843 -11681.7026 -11334.1859 60.0565 -846.7583 -791.6349 29681.6309 4.4775 4.4410
TCL: Running 100000 steps at 90 kelvin.
TCL: Setting parameter langevinTemp to 90
TCL: Running for 100000 steps
ETITLE: TS BOND ANGLE DIHED IMPRP ELECT VDW BOUNDARY MISC KINETIC TOTAL TEMP POTENTIAL TOTAL3 TEMPAVG PRESSURE GPRESSURE VOLUME PRESSAVG GPRESSAVG
ENERGY: 200000 0.0000 0.0000 0.0000 0.0000 -14005.6297 2323.9271 0.0000 0.0000 346.1837 -11335.5189 59.2543 -11681.7026 -11334.7719 59.2543 -848.4091 -791.4837 29681.6309 -848.4091 -791.4837
ENERGY: 300000 0.0000 0.0000 0.0000 0.0000 -13975.7394 2338.7992 0.0000 0.0000 526.8731 -11110.0671 90.1818 -11636.9402 -11109.2438 90.0280 -358.2806 -286.8119 28927.9558 4.2975 4.1574
TCL: Running 100000 steps at 120 kelvin.
TCL: Setting parameter langevinTemp to 120
TCL: Running for 100000 steps
ETITLE: TS BOND ANGLE DIHED IMPRP ELECT VDW BOUNDARY MISC KINETIC TOTAL TEMP POTENTIAL TOTAL3 TEMPAVG PRESSURE GPRESSURE VOLUME PRESSAVG GPRESSAVG
ENERGY: 300000 0.0000 0.0000 0.0000 0.0000 -13975.7394 2338.7992 0.0000 0.0000 526.6014 -11110.3388 90.1353 -11636.9402 -11109.2134 90.1353 -348.5861 -287.0406 28927.9558 -348.5861 -287.0406
ENERGY: 400000 0.0000 0.0000 0.0000 0.0000 -13898.7942 2382.2507 0.0000 0.0000 702.7194 -10813.8240 120.2804 -11516.5435 -10812.3130 120.0107 299.0643 335.1775 28978.9967 3.6327 3.5599
TCL: Running 100000 steps at 150 kelvin.
TCL: Setting parameter langevinTemp to 150
TCL: Running for 100000 steps
ETITLE: TS BOND ANGLE DIHED IMPRP ELECT VDW BOUNDARY MISC KINETIC TOTAL TEMP POTENTIAL TOTAL3 TEMPAVG PRESSURE GPRESSURE VOLUME PRESSAVG GPRESSAVG
ENERGY: 400000 0.0000 0.0000 0.0000 0.0000 -13898.7942 2382.2507 0.0000 0.0000 702.3708 -10814.1727 120.2208 -11516.5435 -10812.9733 120.2208 281.4724 335.4061 28978.9967 281.4724 335.4061
ENERGY: 500000 0.0000 0.0000 0.0000 0.0000 -13499.3349 2164.9607 0.0000 0.0000 885.9276 -10448.4465 151.6391 -11334.3741 -10446.2466 149.8457 -859.6896 -849.8385 29192.0721 4.2808 4.3010
TCL: Running 100000 steps at 180 kelvin.
TCL: Setting parameter langevinTemp to 180
TCL: Running for 100000 steps
ETITLE: TS BOND ANGLE DIHED IMPRP ELECT VDW BOUNDARY MISC KINETIC TOTAL TEMP POTENTIAL TOTAL3 TEMPAVG PRESSURE GPRESSURE VOLUME PRESSAVG GPRESSAVG
ENERGY: 500000 0.0000 0.0000 0.0000 0.0000 -13499.3349 2164.9607 0.0000 0.0000 885.5191 -10448.8550 151.5692 -11334.3741 -10446.8033 151.5692 -909.0621 -849.7661 29192.0721 -909.0621 -849.7661
ENERGY: 600000 0.0000 0.0000 0.0000 0.0000 -13267.2607 2178.3148 0.0000 0.0000 1055.2992 -10033.6468 180.6295 -11088.9460 -10031.9954 179.9098 298.7508 338.4589 28881.6936 3.7597 3.6752
TCL: Running 100000 steps at 210 kelvin.
TCL: Setting parameter langevinTemp to 210
TCL: Running for 100000 steps
ETITLE: TS BOND ANGLE DIHED IMPRP ELECT VDW BOUNDARY MISC KINETIC TOTAL TEMP POTENTIAL TOTAL3 TEMPAVG PRESSURE GPRESSURE VOLUME PRESSAVG GPRESSAVG
ENERGY: 600000 0.0000 0.0000 0.0000 0.0000 -13267.2607 2178.3148 0.0000 0.0000 1054.7934 -10034.1526 180.5429 -11088.9460 -10032.2905 180.5429 283.0142 337.5346 28881.6936 283.0142 337.5346
ENERGY: 700000 0.0000 0.0000 0.0000 0.0000 -12326.2028 1778.7456 0.0000 0.0000 1238.2853 -9309.1720 211.9502 -10547.4572 -9305.1811 210.2306 -869.6470 -838.4041 28991.0527 3.0839 3.2994
TCL: Running 100000 steps at 240 kelvin.
TCL: Setting parameter langevinTemp to 240
TCL: Running for 100000 steps
ETITLE: TS BOND ANGLE DIHED IMPRP ELECT VDW BOUNDARY MISC KINETIC TOTAL TEMP POTENTIAL TOTAL3 TEMPAVG PRESSURE GPRESSURE VOLUME PRESSAVG GPRESSAVG
ENERGY: 700000 0.0000 0.0000 0.0000 0.0000 -12326.2028 1778.7456 0.0000 0.0000 1237.6868 -9309.7704 211.8477 -10547.4572 -9307.3530 211.8477 -916.2781 -836.2055 28991.0527 -916.2781 -836.2055
ENERGY: 800000 0.0000 0.0000 0.0000 0.0000 -11903.0856 1761.0461 0.0000 0.0000 1352.9295 -8789.1100 231.5732 -10142.0394 -8787.2114 240.5326 330.0072 421.3934 28813.6495 2.1257 2.4018
TCL: Running 100000 steps at 270 kelvin.
TCL: Setting parameter langevinTemp to 270
TCL: Running for 100000 steps
ETITLE: TS BOND ANGLE DIHED IMPRP ELECT VDW BOUNDARY MISC KINETIC TOTAL TEMP POTENTIAL TOTAL3 TEMPAVG PRESSURE GPRESSURE VOLUME PRESSAVG GPRESSAVG
ENERGY: 800000 0.0000 0.0000 0.0000 0.0000 -11903.0856 1761.0461 0.0000 0.0000 1352.2163 -8789.8231 231.4511 -10142.0394 -8787.5172 231.4511 340.0828 421.3774 28813.6495 340.0828 421.3774
ENERGY: 900000 0.0000 0.0000 0.0000 0.0000 -11235.6209 1609.8555 0.0000 0.0000 1583.3769 -8042.3885 271.0175 -9625.7654 -8039.6422 270.1577 570.6369 707.1053 29548.8194 3.0019 2.9079
TCL: Running 1000000 steps at 300 kelvin.
TCL: Setting parameter langevinTemp to 300
TCL: Running for 1000000 steps
ETITLE: TS BOND ANGLE DIHED IMPRP ELECT VDW BOUNDARY MISC KINETIC TOTAL TEMP POTENTIAL TOTAL3 TEMPAVG PRESSURE GPRESSURE VOLUME PRESSAVG GPRESSAVG
ENERGY: 900000 0.0000 0.0000 0.0000 0.0000 -11235.6209 1609.8555 0.0000 0.0000 1582.5710 -8043.1944 270.8796 -9625.7654 -8041.9305 270.8796 622.8982 709.6279 29548.8194 622.8982 709.6279
ENERGY: 1100000 0.0000 0.0000 0.0000 0.0000 -10873.0018 1559.8208 0.0000 0.0000 1782.5102 -7530.6709 305.1020 -9313.1810 -7527.0140 300.0875 650.5116 796.6264 30867.0198 2.9963 2.9561
ENERGY: 1300000 0.0000 0.0000 0.0000 0.0000 -10823.8356 1492.9385 0.0000 0.0000 1766.3977 -7564.4994 302.3441 -9330.8971 -7560.6837 300.1481 227.7656 372.2207 30357.8431 2.5500 2.3067
ENERGY: 1500000 0.0000 0.0000 0.0000 0.0000 -10618.7103 1298.1459 0.0000 0.0000 1698.2015 -7622.3629 290.6714 -9320.5644 -7620.1816 299.9751 -1121.3077 -1026.9556 30549.9893 3.9920 3.7263
ENERGY: 1700000 0.0000 0.0000 0.0000 0.0000 -10690.2444 1401.6387 0.0000 0.0000 1804.7022 -7483.9035 308.9005 -9288.6057 -7481.4367 300.1111 -46.5047 65.7646 30030.8428 2.3198 2.2634
ENERGY: 1900000 0.0000 0.0000 0.0000 0.0000 -10599.2484 1366.9407 0.0000 0.0000 1725.5606 -7506.7470 295.3543 -9232.3076 -7503.6768 301.0569 -439.5306 -425.3781 30730.4097 2.6456 2.6828
TCL: Exiting due to exit command.
