Info: SIMULATION PARAMETERS:
Info: TIMESTEP               2
Info: NUMBER OF STEPS        0
Info: STEPS PER CYCLE        10
Info: PERIODIC CELL BASIS 1  36.592 0 0
Info: PERIODIC CELL BASIS 2  0 35.411 0
Info: PERIODIC CELL BASIS 3  0 0 34.68
Info: PERIODIC CELL CENTER   0 0 0
Info: WRAPPING WATERS AROUND PERIODIC BOUNDARIES ON OUTPUT.
Info: WRAPPING ALL CLUSTERS AROUND PERIODIC BOUNDARIES ON OUTPUT.
Info: FIRST LDB TIMESTEP     50
Info: LAST LDB TIMESTEP     -1
Info: HOM BACKGROUND SCALING 1
Info: PME BACKGROUND SCALING 1
Info: MIN ATOMS PER PATCH    40
Info: EMPTY PATCH LOAD       40 ATOMS
Info: INITIAL TEMPERATURE    300
Info: CENTER OF MASS MOVING INITIALLY? NO
Info: DIELECTRIC             1
Info: EXCLUDE                SCALED ONE-FOUR
Info: 1-4 ELECTROSTATICS SCALED BY 0.833333
Info: MODIFIED 1-4 VDW PARAMETERS WILL BE USED
Info: DCD FILENAME           mobley_8739734_equil.dcd
Info: DCD FREQUENCY          100000
Info: DCD FIRST STEP         100000
Info: DCD FILE WILL CONTAIN UNIT CELL DATA
Info: XST FILENAME           mobley_8739734_equil.xst
Info: XST FREQUENCY          100000
Info: NO VELOCITY DCD OUTPUT
Info: NO FORCE DCD OUTPUT
Info: OUTPUT FILENAME        mobley_8739734_equil
Info: BINARY OUTPUT FILES WILL BE USED
Info: RESTART FILENAME       mobley_8739734_equil.restart
Info: RESTART FREQUENCY      100000
Info: BINARY RESTART FILES WILL BE USED
Info: CUTOFF                 9
Info: PAIRLIST DISTANCE      11
Info: PAIRLIST SHRINK RATE   0.01
Info: PAIRLIST GROW RATE     0.01
Info: PAIRLIST TRIGGER       0.3
Info: PAIRLISTS PER CYCLE    2
Info: PAIRLISTS ENABLED
Info: MARGIN                 8
Info: HYDROGEN GROUP CUTOFF  2.5
Info: PATCH DIMENSION        21.5
Info: ENERGY OUTPUT STEPS    100000
Info: ENERGY EVALUATION STEPS    100000
Info: OUTPUT ENERGY PRECISION 4
Info: CROSSTERM ENERGY INCLUDED IN DIHEDRAL
Info: TIMING OUTPUT STEPS    1000000
Info: PRESSURE OUTPUT STEPS  100000
Info: FIXED ATOMS ACTIVE
Info: LANGEVIN DYNAMICS ACTIVE
Info: LANGEVIN TEMPERATURE   30
Info: LANGEVIN USING BBK INTEGRATOR
Info: LANGEVIN DAMPING COEFFICIENT IS 1 INVERSE PS
Info: LANGEVIN DYNAMICS APPLIED TO HYDROGENS
Info: LANGEVIN PISTON PRESSURE CONTROL ACTIVE
Info:        TARGET PRESSURE IS 1.01325 BAR
Info:     OSCILLATION PERIOD IS 50 FS
Info:             DECAY TIME IS 25 FS
Info:     PISTON TEMPERATURE IS 300 K
Info:       PRESSURE CONTROL IS GROUP-BASED
Info:    INITIAL STRAIN RATE IS 0 0 0
Info:       CELL FLUCTUATION IS ISOTROPIC
Info: PARTICLE MESH EWALD (PME) ACTIVE
Info: PME TOLERANCE               1e-06
Info: PME EWALD COEFFICIENT       0.348832
Info: PME INTERPOLATION ORDER     4
Info: PME GRID DIMENSIONS         40 36 36
Info: PME MAXIMUM GRID SPACING    1
Info: FULL ELECTROSTATIC EVALUATION FREQUENCY      2
Info: USING VERLET I (r-RESPA) MTS SCHEME.
Info: C1 SPLITTING OF LONG RANGE ELECTROSTATICS
Info: PLACING ATOMS IN PATCHES BY HYDROGEN GROUPS
Info: RIGID BONDS TO HYDROGEN : ALL
Info:         ERROR TOLERANCE : 1e-08
Info:          MAX ITERATIONS : 100
Info: RIGID WATER USING SETTLE ALGORITHM
Info: RANDOM NUMBER SEED     1744085356
Info: USE HYDROGEN BONDS?    NO
Info: Using AMBER format force field!
Info: AMBER PARM FILE        mobley_8739734.prmtop
Info: COORDINATE PDB         mobley_8739734.pdb
Info: Exclusions will be read from PARM file!
Info: SCNB (VDW SCALING)     2
Info: USING ARITHMETIC MEAN TO COMBINE L-J SIGMA PARAMETERS
Info: BINARY COORDINATES     mobley_8739734_min.coor
Info: SUMMARY OF PARAMETERS:
Info: 6 BONDS
Info: 7 ANGLES
Info: 8 DIHEDRAL
Info: 0 IMPROPER
Info: 0 CROSSTERM
Info: 0 VDW
Info: 21 VDW_PAIRS
Info: 0 NBTHOLE_PAIRS
Info: STRUCTURE SUMMARY:
Info: 2986 ATOMS
Info: 2985 BONDS
Info: 27 ANGLES
Info: 39 DIHEDRALS
Info: 0 IMPROPERS
Info: 0 CROSSTERMS
Info: 3042 EXCLUSIONS
Info: 16 FIXED ATOMS
Info: 2980 RIGID BONDS
Info: 10 RIGID BONDS BETWEEN FIXED ATOMS
Info: 5940 DEGREES OF FREEDOM
Info: 996 HYDROGEN GROUPS
Info: 4 ATOMS IN LARGEST HYDROGEN GROUP
Info: 996 MIGRATION GROUPS
Info: 4 ATOMS IN LARGEST MIGRATION GROUP
Info: 6 HYDROGEN GROUPS WITH ALL ATOMS FIXED
Info: TOTAL MASS = 17922 amu
Info: TOTAL CHARGE = -0.000200074 e
Info: MASS DENSITY = 0.66228 g/cm^3
Info: ATOM DENSITY = 0.0664487 atoms/A^3
Info: ADDED 0 IMPLICIT EXCLUSIONS
Info: NONBONDED TABLE R-SQUARED SPACING: 0.0625
Info: NONBONDED TABLE SIZE: 705 POINTS
Info: REMOVING COM VELOCITY 0.0914518 0.0483087 0.0254342
TCL: Running for 100000 steps
ETITLE: TS BOND ANGLE DIHED IMPRP ELECT VDW BOUNDARY MISC KINETIC TOTAL TEMP POTENTIAL TOTAL3 TEMPAVG PRESSURE GPRESSURE VOLUME PRESSAVG GPRESSAVG
ENERGY: 0 0.0000 0.0000 0.0000 0.0000 -13830.5179 2425.9734 0.0000 0.0000 1813.3304 -9591.2141 307.2422 -11404.5445 -9590.8645 307.2422 515.8709 539.9070 44936.9329 515.8709 539.9070
ENERGY: 100000 0.0000 0.0000 0.0000 0.0000 -14385.7366 2500.1774 0.0000 0.0000 174.0222 -11711.5371 29.4855 -11885.5592 -11711.0707 30.9591 157.0043 226.5868 29300.5649 4.3564 4.3647
TCL: Running 100000 steps at 60 kelvin.
TCL: Setting parameter langevinTemp to 60
TCL: Running for 100000 steps
ETITLE: TS BOND ANGLE DIHED IMPRP ELECT VDW BOUNDARY MISC KINETIC TOTAL TEMP POTENTIAL TOTAL3 TEMPAVG PRESSURE GPRESSURE VOLUME PRESSAVG GPRESSAVG
ENERGY: 100000 0.0000 0.0000 0.0000 0.0000 -14385.7366 2500.1774 0.0000 0.0000 173.9319 -11711.6273 29.4702 -11885.5592 -11711.2671 29.4702 159.6854 226.5189 29300.5649 159.6854 226.5189
ENERGY: 200000 0.0000 0.0000 0.0000 0.0000 -14302.5571 2458.7520 0.0000 0.0000 350.9540 -11492.8511 59.4640 -11843.8051 -11491.7142 59.9063 116.6862 175.0813 28842.0755 3.0057 2.8798
TCL: Running 100000 steps at 90 kelvin.
TCL: Setting parameter langevinTemp to 90
TCL: Running for 100000 steps
ETITLE: TS BOND ANGLE DIHED IMPRP ELECT VDW BOUNDARY MISC KINETIC TOTAL TEMP POTENTIAL TOTAL3 TEMPAVG PRESSURE GPRESSURE VOLUME PRESSAVG GPRESSAVG
ENERGY: 200000 0.0000 0.0000 0.0000 0.0000 -14302.5571 2458.7520 0.0000 0.0000 350.7809 -11493.0242 59.4347 -11843.8051 -11492.2311 59.4347 116.8357 175.6684 28842.0755 116.8357 175.6684
ENERGY: 300000 0.0000 0.0000 0.0000 0.0000 -14159.2161 2382.8279 0.0000 0.0000 515.5621 -11260.8261 87.3544 -11776.3882 -11259.7134 89.9714 -234.0685 -156.6639 28757.4126 2.7216 2.6794
TCL: Running 100000 steps at 120 kelvin.
TCL: Setting parameter langevinTemp to 120
TCL: Running for 100000 steps
ETITLE: TS BOND ANGLE DIHED IMPRP ELECT VDW BOUNDARY MISC KINETIC TOTAL TEMP POTENTIAL TOTAL3 TEMPAVG PRESSURE GPRESSURE VOLUME PRESSAVG GPRESSAVG
ENERGY: 300000 0.0000 0.0000 0.0000 0.0000 -14159.2161 2382.8279 0.0000 0.0000 515.2966 -11261.0916 87.3094 -11776.3882 -11260.0425 87.3094 -216.4160 -156.8534 28757.4126 -216.4160 -156.8534
ENERGY: 400000 0.0000 0.0000 0.0000 0.0000 -14053.3978 2378.0466 0.0000 0.0000 710.4141 -10964.9371 120.3692 -11675.3512 -10963.5509 119.8658 185.8371 244.1055 28618.3103 3.4054 3.5474
TCL: Running 100000 steps at 150 kelvin.
TCL: Setting parameter langevinTemp to 150
TCL: Running for 100000 steps
ETITLE: TS BOND ANGLE DIHED IMPRP ELECT VDW BOUNDARY MISC KINETIC TOTAL TEMP POTENTIAL TOTAL3 TEMPAVG PRESSURE GPRESSURE VOLUME PRESSAVG GPRESSAVG
ENERGY: 400000 0.0000 0.0000 0.0000 0.0000 -14053.3978 2378.0466 0.0000 0.0000 710.0754 -10965.2758 120.3119 -11675.3512 -10963.9137 120.3119 199.6672 243.0988 28618.3103 199.6672 243.0988
ENERGY: 500000 0.0000 0.0000 0.0000 0.0000 -13728.2220 2262.6323 0.0000 0.0000 886.2126 -10579.3770 150.1557 -11465.5896 -10576.5976 150.1935 -341.2602 -313.1420 29374.2437 4.0769 4.1558
TCL: Running 100000 steps at 180 kelvin.
TCL: Setting parameter langevinTemp to 180
TCL: Running for 100000 steps
ETITLE: TS BOND ANGLE DIHED IMPRP ELECT VDW BOUNDARY MISC KINETIC TOTAL TEMP POTENTIAL TOTAL3 TEMPAVG PRESSURE GPRESSURE VOLUME PRESSAVG GPRESSAVG
ENERGY: 500000 0.0000 0.0000 0.0000 0.0000 -13728.2220 2262.6323 0.0000 0.0000 885.7748 -10579.8149 150.0815 -11465.5896 -10578.1675 150.0815 -367.7343 -312.2914 29374.2437 -367.7343 -312.2914
ENERGY: 600000 0.0000 0.0000 0.0000 0.0000 -13301.5939 2178.6839 0.0000 0.0000 1077.1693 -10045.7407 182.5105 -11122.9100 -10042.7655 180.2454 631.0945 675.1583 28801.6520 5.4466 5.4760
TCL: Running 100000 steps at 210 kelvin.
TCL: Setting parameter langevinTemp to 210
TCL: Running for 100000 steps
ETITLE: TS BOND ANGLE DIHED IMPRP ELECT VDW BOUNDARY MISC KINETIC TOTAL TEMP POTENTIAL TOTAL3 TEMPAVG PRESSURE GPRESSURE VOLUME PRESSAVG GPRESSAVG
ENERGY: 600000 0.0000 0.0000 0.0000 0.0000 -13301.5939 2178.6839 0.0000 0.0000 1076.6130 -10046.2970 182.4163 -11122.9100 -10044.4974 182.4163 610.1383 675.4572 28801.6520 610.1383 675.4572
ENERGY: 700000 0.0000 0.0000 0.0000 0.0000 -12611.7808 1959.0719 0.0000 0.0000 1291.4965 -9361.2125 218.8251 -10652.7089 -9359.2170 209.6154 433.9381 525.9716 29186.4335 3.4952 3.5236
TCL: Running 100000 steps at 240 kelvin.
TCL: Setting parameter langevinTemp to 240
TCL: Running for 100000 steps
ETITLE: TS BOND ANGLE DIHED IMPRP ELECT VDW BOUNDARY MISC KINETIC TOTAL TEMP POTENTIAL TOTAL3 TEMPAVG PRESSURE GPRESSURE VOLUME PRESSAVG GPRESSAVG
ENERGY: 700000 0.0000 0.0000 0.0000 0.0000 -12611.7808 1959.0719 0.0000 0.0000 1290.8731 -9361.8359 218.7195 -10652.7089 -9360.2563 218.7195 454.2480 525.2097 29186.4335 454.2480 525.2097
ENERGY: 800000 0.0000 0.0000 0.0000 0.0000 -11989.2570 1765.6657 0.0000 0.0000 1432.3829 -8791.2084 242.6963 -10223.5912 -8788.9985 240.2696 256.3715 278.3747 29550.0212 3.2705 3.2061
TCL: Running 100000 steps at 270 kelvin.
TCL: Setting parameter langevinTemp to 270
TCL: Running for 100000 steps
ETITLE: TS BOND ANGLE DIHED IMPRP ELECT VDW BOUNDARY MISC KINETIC TOTAL TEMP POTENTIAL TOTAL3 TEMPAVG PRESSURE GPRESSURE VOLUME PRESSAVG GPRESSAVG
ENERGY: 800000 0.0000 0.0000 0.0000 0.0000 -11989.2570 1765.6657 0.0000 0.0000 1431.6620 -8791.9292 242.5741 -10223.5912 -8789.7604 242.5741 208.2519 278.5659 29550.0212 208.2519 278.5659
ENERGY: 900000 0.0000 0.0000 0.0000 0.0000 -11470.6755 1636.1309 0.0000 0.0000 1538.1294 -8296.4152 260.6135 -9834.5446 -8292.4283 269.6620 105.4150 207.9442 30215.9820 2.9855 3.1498
TCL: Running 1000000 steps at 300 kelvin.
TCL: Setting parameter langevinTemp to 300
TCL: Running for 1000000 steps
ETITLE: TS BOND ANGLE DIHED IMPRP ELECT VDW BOUNDARY MISC KINETIC TOTAL TEMP POTENTIAL TOTAL3 TEMPAVG PRESSURE GPRESSURE VOLUME PRESSAVG GPRESSAVG
ENERGY: 900000 0.0000 0.0000 0.0000 0.0000 -11470.6755 1636.1309 0.0000 0.0000 1537.3552 -8297.1894 260.4823 -9834.5446 -8294.6592 260.4823 122.6982 207.9806 30215.9820 122.6982 207.9806
ENERGY: 1100000 0.0000 0.0000 0.0000 0.0000 -10965.0486 1523.5086 0.0000 0.0000 1753.3947 -7688.1453 297.0870 -9441.5400 -7684.3628 300.1560 754.8436 838.0541 30146.8926 3.4489 3.4248
ENERGY: 1300000 0.0000 0.0000 0.0000 0.0000 -10929.7019 1434.8002 0.0000 0.0000 1751.2326 -7743.6691 296.7207 -9494.9017 -7740.2197 300.4624 -336.2080 -324.3155 30553.3441 3.7022 3.7578
ENERGY: 1500000 0.0000 0.0000 0.0000 0.0000 -10988.9609 1482.8857 0.0000 0.0000 1792.4815 -7713.5936 303.7097 -9506.0752 -7708.8424 300.1134 44.4768 127.5528 30631.2462 2.6314 2.5636
ENERGY: 1700000 0.0000 0.0000 0.0000 0.0000 -10852.4833 1421.2394 0.0000 0.0000 1795.2124 -7636.0315 304.1724 -9431.2439 -7631.1897 300.6680 -99.2274 -52.9748 30495.0727 4.2759 4.1672
ENERGY: 1900000 0.0000 0.0000 0.0000 0.0000 -10878.1043 1450.4075 0.0000 0.0000 1749.2877 -7678.4092 296.3911 -9427.6969 -7676.2930 299.9258 2.1342 93.0191 30677.2861 2.7795 2.7493
TCL: Exiting due to exit command.
