Info: SIMULATION PARAMETERS:
Info: TIMESTEP               2
Info: NUMBER OF STEPS        0
Info: STEPS PER CYCLE        10
Info: PERIODIC CELL BASIS 1  36.281 0 0
Info: PERIODIC CELL BASIS 2  0 35.779 0
Info: PERIODIC CELL BASIS 3  0 0 34.68
Info: PERIODIC CELL CENTER   0 0 0
Info: WRAPPING WATERS AROUND PERIODIC BOUNDARIES ON OUTPUT.
Info: WRAPPING ALL CLUSTERS AROUND PERIODIC BOUNDARIES ON OUTPUT.
Info: FIRST LDB TIMESTEP     50
Info: LAST LDB TIMESTEP     -1
Info: HOM BACKGROUND SCALING 1
Info: PME BACKGROUND SCALING 1
Info: MIN ATOMS PER PATCH    40
Info: EMPTY PATCH LOAD       40 ATOMS
Info: INITIAL TEMPERATURE    300
Info: CENTER OF MASS MOVING INITIALLY? NO
Info: DIELECTRIC             1
Info: EXCLUDE                SCALED ONE-FOUR
Info: 1-4 ELECTROSTATICS SCALED BY 0.833333
Info: MODIFIED 1-4 VDW PARAMETERS WILL BE USED
Info: DCD FILENAME           mobley_3323117_equil.dcd
Info: DCD FREQUENCY          100000
Info: DCD FIRST STEP         100000
Info: DCD FILE WILL CONTAIN UNIT CELL DATA
Info: XST FILENAME           mobley_3323117_equil.xst
Info: XST FREQUENCY          100000
Info: NO VELOCITY DCD OUTPUT
Info: NO FORCE DCD OUTPUT
Info: OUTPUT FILENAME        mobley_3323117_equil
Info: BINARY OUTPUT FILES WILL BE USED
Info: RESTART FILENAME       mobley_3323117_equil.restart
Info: RESTART FREQUENCY      100000
Info: BINARY RESTART FILES WILL BE USED
Info: CUTOFF                 9
Info: PAIRLIST DISTANCE      11
Info: PAIRLIST SHRINK RATE   0.01
Info: PAIRLIST GROW RATE     0.01
Info: PAIRLIST TRIGGER       0.3
Info: PAIRLISTS PER CYCLE    2
Info: PAIRLISTS ENABLED
Info: MARGIN                 8
Info: HYDROGEN GROUP CUTOFF  2.5
Info: PATCH DIMENSION        21.5
Info: ENERGY OUTPUT STEPS    100000
Info: ENERGY EVALUATION STEPS    100000
Info: OUTPUT ENERGY PRECISION 4
Info: CROSSTERM ENERGY INCLUDED IN DIHEDRAL
Info: TIMING OUTPUT STEPS    1000000
Info: PRESSURE OUTPUT STEPS  100000
Info: FIXED ATOMS ACTIVE
Info: LANGEVIN DYNAMICS ACTIVE
Info: LANGEVIN TEMPERATURE   30
Info: LANGEVIN USING BBK INTEGRATOR
Info: LANGEVIN DAMPING COEFFICIENT IS 1 INVERSE PS
Info: LANGEVIN DYNAMICS APPLIED TO HYDROGENS
Info: LANGEVIN PISTON PRESSURE CONTROL ACTIVE
Info:        TARGET PRESSURE IS 1.01325 BAR
Info:     OSCILLATION PERIOD IS 50 FS
Info:             DECAY TIME IS 25 FS
Info:     PISTON TEMPERATURE IS 300 K
Info:       PRESSURE CONTROL IS GROUP-BASED
Info:    INITIAL STRAIN RATE IS 0 0 0
Info:       CELL FLUCTUATION IS ISOTROPIC
Info: PARTICLE MESH EWALD (PME) ACTIVE
Info: PME TOLERANCE               1e-06
Info: PME EWALD COEFFICIENT       0.348832
Info: PME INTERPOLATION ORDER     4
Info: PME GRID DIMENSIONS         40 36 36
Info: PME MAXIMUM GRID SPACING    1
Info: FULL ELECTROSTATIC EVALUATION FREQUENCY      2
Info: USING VERLET I (r-RESPA) MTS SCHEME.
Info: C1 SPLITTING OF LONG RANGE ELECTROSTATICS
Info: PLACING ATOMS IN PATCHES BY HYDROGEN GROUPS
Info: RIGID BONDS TO HYDROGEN : ALL
Info:         ERROR TOLERANCE : 1e-08
Info:          MAX ITERATIONS : 100
Info: RIGID WATER USING SETTLE ALGORITHM
Info: RANDOM NUMBER SEED     1743742474
Info: USE HYDROGEN BONDS?    NO
Info: Using AMBER format force field!
Info: AMBER PARM FILE        mobley_3323117.prmtop
Info: COORDINATE PDB         mobley_3323117.pdb
Info: Exclusions will be read from PARM file!
Info: SCNB (VDW SCALING)     2
Info: USING ARITHMETIC MEAN TO COMBINE L-J SIGMA PARAMETERS
Info: BINARY COORDINATES     mobley_3323117_min.coor
Info: SUMMARY OF PARAMETERS:
Info: 7 BONDS
Info: 10 ANGLES
Info:   10 HARMONIC
Info:   0 COSINE-BASED
Info: 7 DIHEDRAL
Info: 0 IMPROPER
Info: 0 CROSSTERM
Info: 0 VDW
Info: 28 VDW_PAIRS
Info: 0 NBTHOLE_PAIRS
Info: STRUCTURE SUMMARY:
Info: 2925 ATOMS
Info: 2925 BONDS
Info: 30 ANGLES
Info: 47 DIHEDRALS
Info: 0 IMPROPERS
Info: 0 CROSSTERMS
Info: 2995 EXCLUSIONS
Info: 15 FIXED ATOMS
Info: 2918 RIGID BONDS
Info: 8 RIGID BONDS BETWEEN FIXED ATOMS
Info: 5820 DEGREES OF FREEDOM
Info: 977 HYDROGEN GROUPS
Info: 3 ATOMS IN LARGEST HYDROGEN GROUP
Info: 977 MIGRATION GROUPS
Info: 3 ATOMS IN LARGEST MIGRATION GROUP
Info: 7 HYDROGEN GROUPS WITH ALL ATOMS FIXED
Info: TOTAL MASS = 17595.7 amu
Info: TOTAL CHARGE = 9.9957e-05 e
Info: MASS DENSITY = 0.649051 g/cm^3
Info: ATOM DENSITY = 0.064974 atoms/A^3
Info: ADDED 0 IMPLICIT EXCLUSIONS
Info: NONBONDED TABLE R-SQUARED SPACING: 0.0625
Info: NONBONDED TABLE SIZE: 705 POINTS
Info: REMOVING COM VELOCITY 0.0879854 -0.110511 0.171295
TCL: Running for 100000 steps
ETITLE: TS BOND ANGLE DIHED IMPRP ELECT VDW BOUNDARY MISC KINETIC TOTAL TEMP POTENTIAL TOTAL3 TEMPAVG PRESSURE GPRESSURE VOLUME PRESSAVG GPRESSAVG
ENERGY: 0 0.0000 0.0000 0.0000 0.0000 -13712.7453 2421.3675 0.0000 0.0000 1739.9530 -9551.4248 300.8880 -11291.3778 -9551.0854 300.8880 608.0375 642.6802 45018.0351 608.0375 642.6802
ENERGY: 100000 0.0000 0.0000 0.0000 0.0000 -14208.2622 2407.7648 0.0000 0.0000 173.3123 -11627.1851 29.9707 -11800.4974 -11626.7634 30.8735 -303.0504 -232.0790 29090.6484 4.9308 4.9721
TCL: Running 100000 steps at 60 kelvin.
TCL: Setting parameter langevinTemp to 60
TCL: Running for 100000 steps
ETITLE: TS BOND ANGLE DIHED IMPRP ELECT VDW BOUNDARY MISC KINETIC TOTAL TEMP POTENTIAL TOTAL3 TEMPAVG PRESSURE GPRESSURE VOLUME PRESSAVG GPRESSAVG
ENERGY: 100000 0.0000 0.0000 0.0000 0.0000 -14208.2622 2407.7648 0.0000 0.0000 173.2231 -11627.2744 29.9553 -11800.4974 -11626.8797 29.9553 -297.8164 -232.1145 29090.6484 -297.8164 -232.1145
ENERGY: 200000 0.0000 0.0000 0.0000 0.0000 -14121.3280 2424.6752 0.0000 0.0000 338.9297 -11357.7231 58.6107 -11696.6528 -11356.9916 59.9624 313.1349 351.8190 28933.2614 1.9312 1.8813
TCL: Running 100000 steps at 90 kelvin.
TCL: Setting parameter langevinTemp to 90
TCL: Running for 100000 steps
ETITLE: TS BOND ANGLE DIHED IMPRP ELECT VDW BOUNDARY MISC KINETIC TOTAL TEMP POTENTIAL TOTAL3 TEMPAVG PRESSURE GPRESSURE VOLUME PRESSAVG GPRESSAVG
ENERGY: 200000 0.0000 0.0000 0.0000 0.0000 -14121.3280 2424.6752 0.0000 0.0000 338.7500 -11357.9028 58.5796 -11696.6528 -11357.1648 58.5796 297.7407 351.7294 28933.2614 297.7407 351.7294
ENERGY: 300000 0.0000 0.0000 0.0000 0.0000 -14073.0347 2447.1350 0.0000 0.0000 531.1847 -11094.7150 91.8572 -11625.8997 -11093.2644 89.9819 945.5337 1004.7192 28206.6682 2.9547 3.0538
TCL: Running 100000 steps at 120 kelvin.
TCL: Setting parameter langevinTemp to 120
TCL: Running for 100000 steps
ETITLE: TS BOND ANGLE DIHED IMPRP ELECT VDW BOUNDARY MISC KINETIC TOTAL TEMP POTENTIAL TOTAL3 TEMPAVG PRESSURE GPRESSURE VOLUME PRESSAVG GPRESSAVG
ENERGY: 300000 0.0000 0.0000 0.0000 0.0000 -14073.0347 2447.1350 0.0000 0.0000 530.9183 -11094.9814 91.8111 -11625.8997 -11094.1785 91.8111 955.4217 1004.8655 28206.6682 955.4217 1004.8655
ENERGY: 400000 0.0000 0.0000 0.0000 0.0000 -13774.1644 2234.8212 0.0000 0.0000 675.8393 -10863.5039 116.8721 -11539.3432 -10861.6816 120.0830 -698.8523 -642.3238 28711.0637 4.2856 4.3153
TCL: Running 100000 steps at 150 kelvin.
TCL: Setting parameter langevinTemp to 150
TCL: Running for 100000 steps
ETITLE: TS BOND ANGLE DIHED IMPRP ELECT VDW BOUNDARY MISC KINETIC TOTAL TEMP POTENTIAL TOTAL3 TEMPAVG PRESSURE GPRESSURE VOLUME PRESSAVG GPRESSAVG
ENERGY: 400000 0.0000 0.0000 0.0000 0.0000 -13774.1644 2234.8212 0.0000 0.0000 675.4904 -10863.8528 116.8118 -11539.3432 -10862.3250 116.8118 -690.7726 -642.4123 28711.0637 -690.7726 -642.4123
ENERGY: 500000 0.0000 0.0000 0.0000 0.0000 -13537.7605 2199.4622 0.0000 0.0000 848.2518 -10490.0466 146.6872 -11338.2983 -10488.2812 149.6979 -220.5098 -195.7843 28559.0245 3.0739 3.2462
TCL: Running 100000 steps at 180 kelvin.
TCL: Setting parameter langevinTemp to 180
TCL: Running for 100000 steps
ETITLE: TS BOND ANGLE DIHED IMPRP ELECT VDW BOUNDARY MISC KINETIC TOTAL TEMP POTENTIAL TOTAL3 TEMPAVG PRESSURE GPRESSURE VOLUME PRESSAVG GPRESSAVG
ENERGY: 500000 0.0000 0.0000 0.0000 0.0000 -13537.7605 2199.4622 0.0000 0.0000 847.8412 -10490.4572 146.6162 -11338.2983 -10488.7210 146.6162 -243.5049 -195.9922 28559.0245 -243.5049 -195.9922
ENERGY: 600000 0.0000 0.0000 0.0000 0.0000 -13145.2511 2097.4697 0.0000 0.0000 1031.8624 -10015.9190 178.4388 -11047.7814 -10014.7846 179.9189 -77.7286 10.2143 28726.6714 4.0157 4.0947
TCL: Running 100000 steps at 210 kelvin.
TCL: Setting parameter langevinTemp to 210
TCL: Running for 100000 steps
ETITLE: TS BOND ANGLE DIHED IMPRP ELECT VDW BOUNDARY MISC KINETIC TOTAL TEMP POTENTIAL TOTAL3 TEMPAVG PRESSURE GPRESSURE VOLUME PRESSAVG GPRESSAVG
ENERGY: 600000 0.0000 0.0000 0.0000 0.0000 -13145.2511 2097.4697 0.0000 0.0000 1031.3671 -10016.4143 178.3531 -11047.7814 -10014.4210 178.3531 -66.3404 8.1308 28726.6714 -66.3404 8.1308
ENERGY: 700000 0.0000 0.0000 0.0000 0.0000 -12316.7356 1747.2126 0.0000 0.0000 1241.0306 -9328.4925 214.6100 -10569.5230 -9325.8809 210.2825 -1000.7939 -932.7263 28498.7403 3.4848 3.5459
TCL: Running 100000 steps at 240 kelvin.
TCL: Setting parameter langevinTemp to 240
TCL: Running for 100000 steps
ETITLE: TS BOND ANGLE DIHED IMPRP ELECT VDW BOUNDARY MISC KINETIC TOTAL TEMP POTENTIAL TOTAL3 TEMPAVG PRESSURE GPRESSURE VOLUME PRESSAVG GPRESSAVG
ENERGY: 700000 0.0000 0.0000 0.0000 0.0000 -12316.7356 1747.2126 0.0000 0.0000 1240.4121 -9329.1110 214.5030 -10569.5230 -9326.7605 214.5030 -1009.4081 -932.7384 28498.7403 -1009.4081 -932.7384
ENERGY: 800000 0.0000 0.0000 0.0000 0.0000 -11876.4998 1718.1031 0.0000 0.0000 1388.8321 -8769.5646 240.1691 -10158.3967 -8766.8019 239.4299 27.9729 113.3181 28768.0532 3.9239 4.0061
TCL: Running 100000 steps at 270 kelvin.
TCL: Setting parameter langevinTemp to 270
TCL: Running for 100000 steps
ETITLE: TS BOND ANGLE DIHED IMPRP ELECT VDW BOUNDARY MISC KINETIC TOTAL TEMP POTENTIAL TOTAL3 TEMPAVG PRESSURE GPRESSURE VOLUME PRESSAVG GPRESSAVG
ENERGY: 800000 0.0000 0.0000 0.0000 0.0000 -11876.4998 1718.1031 0.0000 0.0000 1388.1520 -8770.2447 240.0515 -10158.3967 -8767.6765 240.0515 25.0301 111.7564 28768.0532 25.0301 111.7564
ENERGY: 900000 0.0000 0.0000 0.0000 0.0000 -11127.1855 1458.0453 0.0000 0.0000 1551.2423 -8117.8978 268.2545 -9669.1401 -8113.6168 270.2769 -821.6489 -766.8734 30079.9359 3.8439 3.7031
TCL: Running 1000000 steps at 300 kelvin.
TCL: Setting parameter langevinTemp to 300
TCL: Running for 1000000 steps
ETITLE: TS BOND ANGLE DIHED IMPRP ELECT VDW BOUNDARY MISC KINETIC TOTAL TEMP POTENTIAL TOTAL3 TEMPAVG PRESSURE GPRESSURE VOLUME PRESSAVG GPRESSAVG
ENERGY: 900000 0.0000 0.0000 0.0000 0.0000 -11127.1855 1458.0453 0.0000 0.0000 1550.4591 -8118.6810 268.1191 -9669.1401 -8116.1048 268.1191 -846.3566 -766.6865 30079.9359 -846.3566 -766.6865
ENERGY: 1100000 0.0000 0.0000 0.0000 0.0000 -10929.5618 1518.6908 0.0000 0.0000 1737.5349 -7673.3361 300.4699 -9410.8710 -7668.6272 300.1623 729.6049 805.5982 29974.3270 3.3659 3.4213
ENERGY: 1300000 0.0000 0.0000 0.0000 0.0000 -10874.2635 1484.2604 0.0000 0.0000 1750.3730 -7639.6301 302.6899 -9390.0031 -7636.1357 300.2058 491.1289 486.1101 29775.8157 3.0396 3.1389
ENERGY: 1500000 0.0000 0.0000 0.0000 0.0000 -10785.4955 1435.9081 0.0000 0.0000 1743.5340 -7606.0535 301.5073 -9349.5875 -7600.9822 300.9219 -67.2149 9.4965 30369.3665 3.0527 3.1126
ENERGY: 1700000 0.0000 0.0000 0.0000 0.0000 -10814.2326 1477.8664 0.0000 0.0000 1688.5993 -7647.7670 292.0075 -9336.3663 -7644.4653 300.0050 310.3326 382.8105 30242.0070 3.6752 3.4556
ENERGY: 1900000 0.0000 0.0000 0.0000 0.0000 -10846.1884 1427.6779 0.0000 0.0000 1716.1814 -7702.3291 296.7772 -9418.5105 -7697.4088 300.3787 -293.0052 -216.0847 30318.1899 3.1018 3.0031
TCL: Exiting due to exit command.
