Info: SIMULATION PARAMETERS:
Info: TIMESTEP               2
Info: NUMBER OF STEPS        0
Info: STEPS PER CYCLE        10
Info: PERIODIC CELL BASIS 1  36.592 0 0
Info: PERIODIC CELL BASIS 2  0 35.411 0
Info: PERIODIC CELL BASIS 3  0 0 34.229
Info: PERIODIC CELL CENTER   0 0 0
Info: WRAPPING WATERS AROUND PERIODIC BOUNDARIES ON OUTPUT.
Info: WRAPPING ALL CLUSTERS AROUND PERIODIC BOUNDARIES ON OUTPUT.
Info: FIRST LDB TIMESTEP     50
Info: LAST LDB TIMESTEP     -1
Info: HOM BACKGROUND SCALING 1
Info: PME BACKGROUND SCALING 1
Info: MIN ATOMS PER PATCH    40
Info: EMPTY PATCH LOAD       40 ATOMS
Info: INITIAL TEMPERATURE    300
Info: CENTER OF MASS MOVING INITIALLY? NO
Info: DIELECTRIC             1
Info: EXCLUDE                SCALED ONE-FOUR
Info: 1-4 ELECTROSTATICS SCALED BY 0.833333
Info: MODIFIED 1-4 VDW PARAMETERS WILL BE USED
Info: DCD FILENAME           mobley_299266_equil.dcd
Info: DCD FREQUENCY          100000
Info: DCD FIRST STEP         100000
Info: DCD FILE WILL CONTAIN UNIT CELL DATA
Info: XST FILENAME           mobley_299266_equil.xst
Info: XST FREQUENCY          100000
Info: NO VELOCITY DCD OUTPUT
Info: NO FORCE DCD OUTPUT
Info: OUTPUT FILENAME        mobley_299266_equil
Info: BINARY OUTPUT FILES WILL BE USED
Info: RESTART FILENAME       mobley_299266_equil.restart
Info: RESTART FREQUENCY      100000
Info: BINARY RESTART FILES WILL BE USED
Info: CUTOFF                 9
Info: PAIRLIST DISTANCE      11
Info: PAIRLIST SHRINK RATE   0.01
Info: PAIRLIST GROW RATE     0.01
Info: PAIRLIST TRIGGER       0.3
Info: PAIRLISTS PER CYCLE    2
Info: PAIRLISTS ENABLED
Info: MARGIN                 8
Info: HYDROGEN GROUP CUTOFF  2.5
Info: PATCH DIMENSION        21.5
Info: ENERGY OUTPUT STEPS    100000
Info: ENERGY EVALUATION STEPS    100000
Info: OUTPUT ENERGY PRECISION 4
Info: CROSSTERM ENERGY INCLUDED IN DIHEDRAL
Info: TIMING OUTPUT STEPS    1000000
Info: PRESSURE OUTPUT STEPS  100000
Info: FIXED ATOMS ACTIVE
Info: LANGEVIN DYNAMICS ACTIVE
Info: LANGEVIN TEMPERATURE   30
Info: LANGEVIN USING BBK INTEGRATOR
Info: LANGEVIN DAMPING COEFFICIENT IS 1 INVERSE PS
Info: LANGEVIN DYNAMICS APPLIED TO HYDROGENS
Info: LANGEVIN PISTON PRESSURE CONTROL ACTIVE
Info:        TARGET PRESSURE IS 1.01325 BAR
Info:     OSCILLATION PERIOD IS 50 FS
Info:             DECAY TIME IS 25 FS
Info:     PISTON TEMPERATURE IS 300 K
Info:       PRESSURE CONTROL IS GROUP-BASED
Info:    INITIAL STRAIN RATE IS 0 0 0
Info:       CELL FLUCTUATION IS ISOTROPIC
Info: PARTICLE MESH EWALD (PME) ACTIVE
Info: PME TOLERANCE               1e-06
Info: PME EWALD COEFFICIENT       0.348832
Info: PME INTERPOLATION ORDER     4
Info: PME GRID DIMENSIONS         40 36 36
Info: PME MAXIMUM GRID SPACING    1
Info: FULL ELECTROSTATIC EVALUATION FREQUENCY      2
Info: USING VERLET I (r-RESPA) MTS SCHEME.
Info: C1 SPLITTING OF LONG RANGE ELECTROSTATICS
Info: PLACING ATOMS IN PATCHES BY HYDROGEN GROUPS
Info: RIGID BONDS TO HYDROGEN : ALL
Info:         ERROR TOLERANCE : 1e-08
Info:          MAX ITERATIONS : 100
Info: RIGID WATER USING SETTLE ALGORITHM
Info: RANDOM NUMBER SEED     1743686297
Info: USE HYDROGEN BONDS?    NO
Info: Using AMBER format force field!
Info: AMBER PARM FILE        mobley_299266.prmtop
Info: COORDINATE PDB         mobley_299266.pdb
Info: Exclusions will be read from PARM file!
Info: SCNB (VDW SCALING)     2
Info: USING ARITHMETIC MEAN TO COMBINE L-J SIGMA PARAMETERS
Info: BINARY COORDINATES     mobley_299266_min.coor
Info: SUMMARY OF PARAMETERS:
Info: 6 BONDS
Info: 6 ANGLES
Info: 5 DIHEDRAL
Info: 0 IMPROPER
Info: 0 CROSSTERM
Info: 0 VDW
Info: 21 VDW_PAIRS
Info: 0 NBTHOLE_PAIRS
Info: STRUCTURE SUMMARY:
Info: 2946 ATOMS
Info: 2945 BONDS
Info: 18 ANGLES
Info: 30 DIHEDRALS
Info: 0 IMPROPERS
Info: 0 CROSSTERMS
Info: 2979 EXCLUSIONS
Info: 12 FIXED ATOMS
Info: 2942 RIGID BONDS
Info: 8 RIGID BONDS BETWEEN FIXED ATOMS
Info: 5868 DEGREES OF FREEDOM
Info: 982 HYDROGEN GROUPS
Info: 4 ATOMS IN LARGEST HYDROGEN GROUP
Info: 982 MIGRATION GROUPS
Info: 4 ATOMS IN LARGEST MIGRATION GROUP
Info: 4 HYDROGEN GROUPS WITH ALL ATOMS FIXED
Info: TOTAL MASS = 17675.8 amu
Info: TOTAL CHARGE = -0.000199981 e
Info: MASS DENSITY = 0.661788 g/cm^3
Info: ATOM DENSITY = 0.0664223 atoms/A^3
Info: ADDED 0 IMPLICIT EXCLUSIONS
Info: NONBONDED TABLE R-SQUARED SPACING: 0.0625
Info: NONBONDED TABLE SIZE: 705 POINTS
Info: REMOVING COM VELOCITY -0.0949142 0.0956557 -0.116951
TCL: Running for 100000 steps
ETITLE: TS BOND ANGLE DIHED IMPRP ELECT VDW BOUNDARY MISC KINETIC TOTAL TEMP POTENTIAL TOTAL3 TEMPAVG PRESSURE GPRESSURE VOLUME PRESSAVG GPRESSAVG
ENERGY: 0 0.0000 0.0000 0.0000 0.0000 -13628.5170 2389.1902 0.0000 0.0000 1698.7361 -9540.5906 291.3575 -11239.3267 -9540.2442 291.3575 284.4303 318.7479 44352.5455 284.4303 318.7479
ENERGY: 100000 0.0000 0.0000 0.0000 0.0000 -14220.7096 2495.1071 0.0000 0.0000 175.8329 -11549.7696 30.1579 -11725.6025 -11549.3653 30.8682 -164.6049 -98.2536 29367.2501 4.4953 4.5024
TCL: Running 100000 steps at 60 kelvin.
TCL: Setting parameter langevinTemp to 60
TCL: Running for 100000 steps
ETITLE: TS BOND ANGLE DIHED IMPRP ELECT VDW BOUNDARY MISC KINETIC TOTAL TEMP POTENTIAL TOTAL3 TEMPAVG PRESSURE GPRESSURE VOLUME PRESSAVG GPRESSAVG
ENERGY: 100000 0.0000 0.0000 0.0000 0.0000 -14220.7096 2495.1071 0.0000 0.0000 175.7464 -11549.8562 30.1430 -11725.6025 -11549.5021 30.1430 -158.3642 -98.2662 29367.2501 -158.3642 -98.2662
ENERGY: 200000 0.0000 0.0000 0.0000 0.0000 -14225.0367 2561.7993 0.0000 0.0000 351.1423 -11312.0951 60.2259 -11663.2374 -11311.5174 59.9602 823.1081 892.7681 28937.7952 3.3746 3.5220
TCL: Running 100000 steps at 90 kelvin.
TCL: Setting parameter langevinTemp to 90
TCL: Running for 100000 steps
ETITLE: TS BOND ANGLE DIHED IMPRP ELECT VDW BOUNDARY MISC KINETIC TOTAL TEMP POTENTIAL TOTAL3 TEMPAVG PRESSURE GPRESSURE VOLUME PRESSAVG GPRESSAVG
ENERGY: 200000 0.0000 0.0000 0.0000 0.0000 -14225.0367 2561.7993 0.0000 0.0000 350.9695 -11312.2679 60.1963 -11663.2374 -11311.6736 60.1963 834.2965 892.3188 28937.7952 834.2965 892.3188
ENERGY: 300000 0.0000 0.0000 0.0000 0.0000 -13908.6032 2317.8279 0.0000 0.0000 525.3326 -11065.4427 90.1020 -11590.7753 -11064.3915 89.9923 -904.8234 -841.2269 29225.0057 3.8215 3.7849
TCL: Running 100000 steps at 120 kelvin.
TCL: Setting parameter langevinTemp to 120
TCL: Running for 100000 steps
ETITLE: TS BOND ANGLE DIHED IMPRP ELECT VDW BOUNDARY MISC KINETIC TOTAL TEMP POTENTIAL TOTAL3 TEMPAVG PRESSURE GPRESSURE VOLUME PRESSAVG GPRESSAVG
ENERGY: 300000 0.0000 0.0000 0.0000 0.0000 -13908.6032 2317.8279 0.0000 0.0000 525.0614 -11065.7140 90.0555 -11590.7753 -11064.6634 90.0555 -887.0758 -841.1306 29225.0057 -887.0758 -841.1306
ENERGY: 400000 0.0000 0.0000 0.0000 0.0000 -13815.0350 2368.2180 0.0000 0.0000 731.1109 -10715.7061 125.3960 -11446.8170 -10714.0332 120.1393 68.7644 120.4257 29000.6291 3.5549 3.5181
TCL: Running 100000 steps at 150 kelvin.
TCL: Setting parameter langevinTemp to 150
TCL: Running for 100000 steps
ETITLE: TS BOND ANGLE DIHED IMPRP ELECT VDW BOUNDARY MISC KINETIC TOTAL TEMP POTENTIAL TOTAL3 TEMPAVG PRESSURE GPRESSURE VOLUME PRESSAVG GPRESSAVG
ENERGY: 400000 0.0000 0.0000 0.0000 0.0000 -13815.0350 2368.2180 0.0000 0.0000 730.7646 -10716.0524 125.3366 -11446.8170 -10714.6355 125.3366 75.9267 120.5459 29000.6291 75.9267 120.5459
ENERGY: 500000 0.0000 0.0000 0.0000 0.0000 -13480.5971 2210.8513 0.0000 0.0000 860.2113 -10409.5345 147.5385 -11269.7458 -10408.1858 149.6923 -606.8151 -572.8288 29365.8349 3.6078 3.5732
TCL: Running 100000 steps at 180 kelvin.
TCL: Setting parameter langevinTemp to 180
TCL: Running for 100000 steps
ETITLE: TS BOND ANGLE DIHED IMPRP ELECT VDW BOUNDARY MISC KINETIC TOTAL TEMP POTENTIAL TOTAL3 TEMPAVG PRESSURE GPRESSURE VOLUME PRESSAVG GPRESSAVG
ENERGY: 500000 0.0000 0.0000 0.0000 0.0000 -13480.5971 2210.8513 0.0000 0.0000 859.7850 -10409.9608 147.4654 -11269.7458 -10408.5340 147.4654 -627.6102 -573.8627 29365.8349 -627.6102 -573.8627
ENERGY: 600000 0.0000 0.0000 0.0000 0.0000 -13068.1998 2012.5508 0.0000 0.0000 1042.3276 -10013.3214 178.7741 -11055.6490 -10010.7003 180.1682 -968.0959 -956.6742 28815.8778 2.9740 2.8487
TCL: Running 100000 steps at 210 kelvin.
TCL: Setting parameter langevinTemp to 210
TCL: Running for 100000 steps
ETITLE: TS BOND ANGLE DIHED IMPRP ELECT VDW BOUNDARY MISC KINETIC TOTAL TEMP POTENTIAL TOTAL3 TEMPAVG PRESSURE GPRESSURE VOLUME PRESSAVG GPRESSAVG
ENERGY: 600000 0.0000 0.0000 0.0000 0.0000 -13068.1998 2012.5508 0.0000 0.0000 1041.8363 -10013.8127 178.6898 -11055.6490 -10011.2705 178.6898 -1014.5371 -958.1549 28815.8778 -1014.5371 -958.1549
ENERGY: 700000 0.0000 0.0000 0.0000 0.0000 -12473.2833 1915.6742 0.0000 0.0000 1194.8442 -9362.7649 204.9328 -10557.6091 -9360.2467 210.1096 -314.9449 -254.0847 29096.8164 2.9682 3.0047
TCL: Running 100000 steps at 240 kelvin.
TCL: Setting parameter langevinTemp to 240
TCL: Running for 100000 steps
ETITLE: TS BOND ANGLE DIHED IMPRP ELECT VDW BOUNDARY MISC KINETIC TOTAL TEMP POTENTIAL TOTAL3 TEMPAVG PRESSURE GPRESSURE VOLUME PRESSAVG GPRESSAVG
ENERGY: 700000 0.0000 0.0000 0.0000 0.0000 -12473.2833 1915.6742 0.0000 0.0000 1194.2246 -9363.3846 204.8266 -10557.6091 -9361.1284 204.8266 -329.3614 -253.9781 29096.8164 -329.3614 -253.9781
ENERGY: 800000 0.0000 0.0000 0.0000 0.0000 -11766.5568 1723.9685 0.0000 0.0000 1423.2570 -8619.3314 244.1089 -10042.5884 -8615.5969 239.8114 141.2402 261.9716 29021.8028 3.3123 3.3556
TCL: Running 100000 steps at 270 kelvin.
TCL: Setting parameter langevinTemp to 270
TCL: Running for 100000 steps
ETITLE: TS BOND ANGLE DIHED IMPRP ELECT VDW BOUNDARY MISC KINETIC TOTAL TEMP POTENTIAL TOTAL3 TEMPAVG PRESSURE GPRESSURE VOLUME PRESSAVG GPRESSAVG
ENERGY: 800000 0.0000 0.0000 0.0000 0.0000 -11766.5568 1723.9685 0.0000 0.0000 1422.5691 -8620.0193 243.9909 -10042.5884 -8617.5424 243.9909 170.0075 263.4171 29021.8028 170.0075 263.4171
ENERGY: 900000 0.0000 0.0000 0.0000 0.0000 -11130.9287 1451.4635 0.0000 0.0000 1553.7056 -8125.7596 266.4827 -9679.4652 -8120.9054 269.9392 -1131.7717 -1066.8608 29857.9444 3.3316 3.2273
TCL: Running 1000000 steps at 300 kelvin.
TCL: Setting parameter langevinTemp to 300
TCL: Running for 1000000 steps
ETITLE: TS BOND ANGLE DIHED IMPRP ELECT VDW BOUNDARY MISC KINETIC TOTAL TEMP POTENTIAL TOTAL3 TEMPAVG PRESSURE GPRESSURE VOLUME PRESSAVG GPRESSAVG
ENERGY: 900000 0.0000 0.0000 0.0000 0.0000 -11130.9287 1451.4635 0.0000 0.0000 1552.9285 -8126.5367 266.3494 -9679.4652 -8123.9234 266.3494 -1149.1310 -1063.6599 29857.9444 -1149.1310 -1063.6599
ENERGY: 1100000 0.0000 0.0000 0.0000 0.0000 -10628.7171 1370.2604 0.0000 0.0000 1775.7891 -7482.6676 304.5732 -9258.4568 -7475.9896 300.0842 -385.0382 -227.5358 30004.4385 3.4282 3.4971
ENERGY: 1300000 0.0000 0.0000 0.0000 0.0000 -10762.7490 1528.0018 0.0000 0.0000 1801.9029 -7432.8443 309.0521 -9234.7472 -7428.8460 300.0444 755.2423 836.4311 30403.4874 2.7914 2.9076
ENERGY: 1500000 0.0000 0.0000 0.0000 0.0000 -10640.2919 1399.8651 0.0000 0.0000 1723.1289 -7517.2978 295.5412 -9240.4267 -7513.3086 300.6447 -225.9352 -166.1455 30212.5442 2.9077 2.8185
ENERGY: 1700000 0.0000 0.0000 0.0000 0.0000 -10812.8085 1448.9134 0.0000 0.0000 1719.5780 -7644.3171 294.9322 -9363.8951 -7641.5645 299.5602 -122.0475 -15.6541 30021.6139 4.3749 4.4785
ENERGY: 1900000 0.0000 0.0000 0.0000 0.0000 -10686.3820 1388.1430 0.0000 0.0000 1802.9664 -7495.2726 309.2345 -9298.2390 -7492.2973 300.4151 -346.5390 -273.4502 30385.2618 3.0734 2.8704
TCL: Exiting due to exit command.
