Info: SIMULATION PARAMETERS:
Info: TIMESTEP               2
Info: NUMBER OF STEPS        0
Info: STEPS PER CYCLE        10
Info: PERIODIC CELL BASIS 1  37.133 0 0
Info: PERIODIC CELL BASIS 2  0 34.696 0
Info: PERIODIC CELL BASIS 3  0 0 33.876
Info: PERIODIC CELL CENTER   0 0 0
Info: WRAPPING WATERS AROUND PERIODIC BOUNDARIES ON OUTPUT.
Info: WRAPPING ALL CLUSTERS AROUND PERIODIC BOUNDARIES ON OUTPUT.
Info: FIRST LDB TIMESTEP     50
Info: LAST LDB TIMESTEP     -1
Info: HOM BACKGROUND SCALING 1
Info: PME BACKGROUND SCALING 1
Info: MIN ATOMS PER PATCH    40
Info: EMPTY PATCH LOAD       40 ATOMS
Info: INITIAL TEMPERATURE    300
Info: CENTER OF MASS MOVING INITIALLY? NO
Info: DIELECTRIC             1
Info: EXCLUDE                SCALED ONE-FOUR
Info: 1-4 ELECTROSTATICS SCALED BY 0.833333
Info: MODIFIED 1-4 VDW PARAMETERS WILL BE USED
Info: DCD FILENAME           mobley_2725802_equil.dcd
Info: DCD FREQUENCY          100000
Info: DCD FIRST STEP         100000
Info: DCD FILE WILL CONTAIN UNIT CELL DATA
Info: XST FILENAME           mobley_2725802_equil.xst
Info: XST FREQUENCY          100000
Info: NO VELOCITY DCD OUTPUT
Info: NO FORCE DCD OUTPUT
Info: OUTPUT FILENAME        mobley_2725802_equil
Info: BINARY OUTPUT FILES WILL BE USED
Info: RESTART FILENAME       mobley_2725802_equil.restart
Info: RESTART FREQUENCY      100000
Info: BINARY RESTART FILES WILL BE USED
Info: CUTOFF                 9
Info: PAIRLIST DISTANCE      11
Info: PAIRLIST SHRINK RATE   0.01
Info: PAIRLIST GROW RATE     0.01
Info: PAIRLIST TRIGGER       0.3
Info: PAIRLISTS PER CYCLE    2
Info: PAIRLISTS ENABLED
Info: MARGIN                 8
Info: HYDROGEN GROUP CUTOFF  2.5
Info: PATCH DIMENSION        21.5
Info: ENERGY OUTPUT STEPS    100000
Info: ENERGY EVALUATION STEPS    100000
Info: OUTPUT ENERGY PRECISION 4
Info: CROSSTERM ENERGY INCLUDED IN DIHEDRAL
Info: TIMING OUTPUT STEPS    1000000
Info: PRESSURE OUTPUT STEPS  100000
Info: FIXED ATOMS ACTIVE
Info: LANGEVIN DYNAMICS ACTIVE
Info: LANGEVIN TEMPERATURE   30
Info: LANGEVIN USING BBK INTEGRATOR
Info: LANGEVIN DAMPING COEFFICIENT IS 1 INVERSE PS
Info: LANGEVIN DYNAMICS APPLIED TO HYDROGENS
Info: LANGEVIN PISTON PRESSURE CONTROL ACTIVE
Info:        TARGET PRESSURE IS 1.01325 BAR
Info:     OSCILLATION PERIOD IS 50 FS
Info:             DECAY TIME IS 25 FS
Info:     PISTON TEMPERATURE IS 300 K
Info:       PRESSURE CONTROL IS GROUP-BASED
Info:    INITIAL STRAIN RATE IS 0 0 0
Info:       CELL FLUCTUATION IS ISOTROPIC
Info: PARTICLE MESH EWALD (PME) ACTIVE
Info: PME TOLERANCE               1e-06
Info: PME EWALD COEFFICIENT       0.348832
Info: PME INTERPOLATION ORDER     4
Info: PME GRID DIMENSIONS         40 36 36
Info: PME MAXIMUM GRID SPACING    1
Info: FULL ELECTROSTATIC EVALUATION FREQUENCY      2
Info: USING VERLET I (r-RESPA) MTS SCHEME.
Info: C1 SPLITTING OF LONG RANGE ELECTROSTATICS
Info: PLACING ATOMS IN PATCHES BY HYDROGEN GROUPS
Info: RIGID BONDS TO HYDROGEN : ALL
Info:         ERROR TOLERANCE : 1e-08
Info:          MAX ITERATIONS : 100
Info: RIGID WATER USING SETTLE ALGORITHM
Info: RANDOM NUMBER SEED     1743743053
Info: USE HYDROGEN BONDS?    NO
Info: Using AMBER format force field!
Info: AMBER PARM FILE        mobley_2725802.prmtop
Info: COORDINATE PDB         mobley_2725802.pdb
Info: Exclusions will be read from PARM file!
Info: SCNB (VDW SCALING)     2
Info: USING ARITHMETIC MEAN TO COMBINE L-J SIGMA PARAMETERS
Info: BINARY COORDINATES     mobley_2725802_min.coor
Info: SUMMARY OF PARAMETERS:
Info: 9 BONDS
Info: 13 ANGLES
Info:   13 HARMONIC
Info:   0 COSINE-BASED
Info: 17 DIHEDRAL
Info: 0 IMPROPER
Info: 0 CROSSTERM
Info: 0 VDW
Info: 36 VDW_PAIRS
Info: 0 NBTHOLE_PAIRS
Info: STRUCTURE SUMMARY:
Info: 2911 ATOMS
Info: 2911 BONDS
Info: 36 ANGLES
Info: 67 DIHEDRALS
Info: 0 IMPROPERS
Info: 0 CROSSTERMS
Info: 2991 EXCLUSIONS
Info: 19 FIXED ATOMS
Info: 2903 RIGID BONDS
Info: 11 RIGID BONDS BETWEEN FIXED ATOMS
Info: 5784 DEGREES OF FREEDOM
Info: 972 HYDROGEN GROUPS
Info: 4 ATOMS IN LARGEST HYDROGEN GROUP
Info: 972 MIGRATION GROUPS
Info: 4 ATOMS IN LARGEST MIGRATION GROUP
Info: 8 HYDROGEN GROUPS WITH ALL ATOMS FIXED
Info: TOTAL MASS = 17480.6 amu
Info: TOTAL CHARGE = -0.000100024 e
Info: MASS DENSITY = 0.665095 g/cm^3
Info: ATOM DENSITY = 0.0666977 atoms/A^3
Info: ADDED 0 IMPLICIT EXCLUSIONS
Info: NONBONDED TABLE R-SQUARED SPACING: 0.0625
Info: NONBONDED TABLE SIZE: 705 POINTS
Info: REMOVING COM VELOCITY 0.152984 -0.100969 -0.0996373
TCL: Running for 100000 steps
ETITLE: TS BOND ANGLE DIHED IMPRP ELECT VDW BOUNDARY MISC KINETIC TOTAL TEMP POTENTIAL TOTAL3 TEMPAVG PRESSURE GPRESSURE VOLUME PRESSAVG GPRESSAVG
ENERGY: 0 0.0000 0.0000 0.0000 0.0000 -13462.1835 2354.0803 0.0000 0.0000 1758.1524 -9349.9508 305.9276 -11108.1033 -9349.5899 305.9276 446.9229 478.2967 43644.7059 446.9229 478.2967
ENERGY: 100000 0.0000 0.0000 0.0000 0.0000 -14044.6331 2365.1008 0.0000 0.0000 176.9518 -11502.5805 30.7905 -11679.5323 -11502.0913 31.0299 -611.1788 -550.1541 27877.9816 4.5836 4.6035
TCL: Running 100000 steps at 60 kelvin.
TCL: Setting parameter langevinTemp to 60
TCL: Running for 100000 steps
ETITLE: TS BOND ANGLE DIHED IMPRP ELECT VDW BOUNDARY MISC KINETIC TOTAL TEMP POTENTIAL TOTAL3 TEMPAVG PRESSURE GPRESSURE VOLUME PRESSAVG GPRESSAVG
ENERGY: 100000 0.0000 0.0000 0.0000 0.0000 -14044.6331 2365.1008 0.0000 0.0000 176.8670 -11502.6654 30.7758 -11679.5323 -11502.3199 30.7758 -606.1905 -550.2825 27877.9816 -606.1905 -550.2825
ENERGY: 200000 0.0000 0.0000 0.0000 0.0000 -13974.6052 2371.5986 0.0000 0.0000 342.8237 -11260.1830 59.6531 -11603.0067 -11259.6378 59.9217 -52.5319 -19.3568 27696.3700 5.3809 5.4557
TCL: Running 100000 steps at 90 kelvin.
TCL: Setting parameter langevinTemp to 90
TCL: Running for 100000 steps
ETITLE: TS BOND ANGLE DIHED IMPRP ELECT VDW BOUNDARY MISC KINETIC TOTAL TEMP POTENTIAL TOTAL3 TEMPAVG PRESSURE GPRESSURE VOLUME PRESSAVG GPRESSAVG
ENERGY: 200000 0.0000 0.0000 0.0000 0.0000 -13974.6052 2371.5986 0.0000 0.0000 342.6434 -11260.3632 59.6217 -11603.0067 -11259.6613 59.6217 -69.2944 -19.7017 27696.3700 -69.2944 -19.7017
ENERGY: 300000 0.0000 0.0000 0.0000 0.0000 -13838.6512 2341.8339 0.0000 0.0000 511.4669 -10985.3503 88.9979 -11496.8172 -10984.1218 90.0122 51.7719 100.3715 27814.2227 4.8457 4.9790
TCL: Running 100000 steps at 120 kelvin.
TCL: Setting parameter langevinTemp to 120
TCL: Running for 100000 steps
ETITLE: TS BOND ANGLE DIHED IMPRP ELECT VDW BOUNDARY MISC KINETIC TOTAL TEMP POTENTIAL TOTAL3 TEMPAVG PRESSURE GPRESSURE VOLUME PRESSAVG GPRESSAVG
ENERGY: 300000 0.0000 0.0000 0.0000 0.0000 -13838.6512 2341.8339 0.0000 0.0000 511.2074 -10985.6098 88.9527 -11496.8172 -10984.8127 88.9527 49.1165 100.5397 27814.2227 49.1165 100.5397
ENERGY: 400000 0.0000 0.0000 0.0000 0.0000 -13648.8774 2261.7228 0.0000 0.0000 668.4599 -10718.6948 116.3155 -11387.1547 -10716.9813 120.0318 -279.7177 -228.6961 28196.9353 4.7587 4.6964
TCL: Running 100000 steps at 150 kelvin.
TCL: Setting parameter langevinTemp to 150
TCL: Running for 100000 steps
ETITLE: TS BOND ANGLE DIHED IMPRP ELECT VDW BOUNDARY MISC KINETIC TOTAL TEMP POTENTIAL TOTAL3 TEMPAVG PRESSURE GPRESSURE VOLUME PRESSAVG GPRESSAVG
ENERGY: 400000 0.0000 0.0000 0.0000 0.0000 -13648.8774 2261.7228 0.0000 0.0000 668.1105 -10719.0442 116.2547 -11387.1547 -10717.6121 116.2547 -277.2574 -228.4805 28196.9353 -277.2574 -228.4805
ENERGY: 500000 0.0000 0.0000 0.0000 0.0000 -13497.6270 2294.5388 0.0000 0.0000 880.1629 -10322.9252 153.1529 -11203.0881 -10322.1255 149.7385 652.5485 699.3545 28245.1632 5.1042 5.0816
TCL: Running 100000 steps at 180 kelvin.
TCL: Setting parameter langevinTemp to 180
TCL: Running for 100000 steps
ETITLE: TS BOND ANGLE DIHED IMPRP ELECT VDW BOUNDARY MISC KINETIC TOTAL TEMP POTENTIAL TOTAL3 TEMPAVG PRESSURE GPRESSURE VOLUME PRESSAVG GPRESSAVG
ENERGY: 500000 0.0000 0.0000 0.0000 0.0000 -13497.6270 2294.5388 0.0000 0.0000 879.7243 -10323.3638 153.0766 -11203.0881 -10321.6851 153.0766 636.2092 698.8012 28245.1632 636.2092 698.8012
ENERGY: 600000 0.0000 0.0000 0.0000 0.0000 -12859.7060 2003.9727 0.0000 0.0000 1057.9816 -9797.7516 184.0942 -10855.7332 -9795.4018 179.7386 -493.0186 -430.6442 28412.5904 2.8814 2.9959
TCL: Running 100000 steps at 210 kelvin.
TCL: Setting parameter langevinTemp to 210
TCL: Running for 100000 steps
ETITLE: TS BOND ANGLE DIHED IMPRP ELECT VDW BOUNDARY MISC KINETIC TOTAL TEMP POTENTIAL TOTAL3 TEMPAVG PRESSURE GPRESSURE VOLUME PRESSAVG GPRESSAVG
ENERGY: 600000 0.0000 0.0000 0.0000 0.0000 -12859.7060 2003.9727 0.0000 0.0000 1057.4661 -9798.2671 184.0045 -10855.7332 -9796.3123 184.0045 -488.4128 -429.6847 28412.5904 -488.4128 -429.6847
ENERGY: 700000 0.0000 0.0000 0.0000 0.0000 -12408.6654 1942.5133 0.0000 0.0000 1194.9163 -9271.2358 207.9216 -10466.1521 -9269.8422 210.1445 382.9220 444.3621 28757.0911 3.9718 3.6418
TCL: Running 100000 steps at 240 kelvin.
TCL: Setting parameter langevinTemp to 240
TCL: Running for 100000 steps
ETITLE: TS BOND ANGLE DIHED IMPRP ELECT VDW BOUNDARY MISC KINETIC TOTAL TEMP POTENTIAL TOTAL3 TEMPAVG PRESSURE GPRESSURE VOLUME PRESSAVG GPRESSAVG
ENERGY: 700000 0.0000 0.0000 0.0000 0.0000 -12408.6654 1942.5133 0.0000 0.0000 1194.2910 -9271.8611 207.8128 -10466.1521 -9270.5973 207.8128 362.4157 444.6571 28757.0911 362.4157 444.6571
ENERGY: 800000 0.0000 0.0000 0.0000 0.0000 -11626.8241 1647.7476 0.0000 0.0000 1341.9234 -8637.1532 233.5016 -9979.0766 -8633.9002 239.9580 -182.7835 -37.1497 28423.4093 2.2236 2.2965
TCL: Running 100000 steps at 270 kelvin.
TCL: Setting parameter langevinTemp to 270
TCL: Running for 100000 steps
ETITLE: TS BOND ANGLE DIHED IMPRP ELECT VDW BOUNDARY MISC KINETIC TOTAL TEMP POTENTIAL TOTAL3 TEMPAVG PRESSURE GPRESSURE VOLUME PRESSAVG GPRESSAVG
ENERGY: 800000 0.0000 0.0000 0.0000 0.0000 -11626.8241 1647.7476 0.0000 0.0000 1341.2276 -8637.8490 233.3805 -9979.0766 -8635.1929 233.3805 -124.1185 -35.4523 28423.4093 -124.1185 -35.4523
ENERGY: 900000 0.0000 0.0000 0.0000 0.0000 -11094.4929 1484.5064 0.0000 0.0000 1538.9276 -8071.0589 267.7813 -9609.9865 -8068.5999 270.6349 -432.4772 -372.2744 29047.0985 1.5966 1.4761
TCL: Running 1000000 steps at 300 kelvin.
TCL: Setting parameter langevinTemp to 300
TCL: Running for 1000000 steps
ETITLE: TS BOND ANGLE DIHED IMPRP ELECT VDW BOUNDARY MISC KINETIC TOTAL TEMP POTENTIAL TOTAL3 TEMPAVG PRESSURE GPRESSURE VOLUME PRESSAVG GPRESSAVG
ENERGY: 900000 0.0000 0.0000 0.0000 0.0000 -11094.4929 1484.5064 0.0000 0.0000 1538.1767 -8071.8098 267.6507 -9609.9865 -8069.2133 267.6507 -463.6091 -372.9601 29047.0985 -463.6091 -372.9601
ENERGY: 1100000 0.0000 0.0000 0.0000 0.0000 -10587.5901 1326.8262 0.0000 0.0000 1786.8435 -7473.9204 310.9200 -9260.7639 -7471.5630 299.9056 -575.5957 -531.9166 29841.8558 2.8396 2.6039
ENERGY: 1300000 0.0000 0.0000 0.0000 0.0000 -10625.0917 1396.1843 0.0000 0.0000 1668.9651 -7559.9422 290.4085 -9228.9074 -7556.5792 300.7121 -201.2100 -205.9519 29930.3584 3.9726 3.8607
ENERGY: 1500000 0.0000 0.0000 0.0000 0.0000 -10564.0920 1411.4893 0.0000 0.0000 1758.4089 -7394.1938 305.9722 -9152.6027 -7392.1205 300.5234 54.5466 145.6048 30415.2423 3.6205 3.8359
ENERGY: 1700000 0.0000 0.0000 0.0000 0.0000 -10731.2262 1457.0985 0.0000 0.0000 1697.7392 -7576.3885 295.4154 -9274.1277 -7572.1697 300.7993 142.9898 259.6427 29853.4276 3.4924 3.1795
ENERGY: 1900000 0.0000 0.0000 0.0000 0.0000 -10597.7117 1357.4121 0.0000 0.0000 1729.0097 -7511.2899 300.8566 -9240.2996 -7507.8108 300.7891 -674.1839 -595.9357 30247.7334 2.1647 2.1239
TCL: Exiting due to exit command.
