Info: SIMULATION PARAMETERS:
Info: TIMESTEP               2
Info: NUMBER OF STEPS        0
Info: STEPS PER CYCLE        10
Info: PERIODIC CELL BASIS 1  35.89 0 0
Info: PERIODIC CELL BASIS 2  0 35.267 0
Info: PERIODIC CELL BASIS 3  0 0 34.954
Info: PERIODIC CELL CENTER   0 0 0
Info: WRAPPING WATERS AROUND PERIODIC BOUNDARIES ON OUTPUT.
Info: WRAPPING ALL CLUSTERS AROUND PERIODIC BOUNDARIES ON OUTPUT.
Info: FIRST LDB TIMESTEP     50
Info: LAST LDB TIMESTEP     -1
Info: HOM BACKGROUND SCALING 1
Info: PME BACKGROUND SCALING 1
Info: MIN ATOMS PER PATCH    40
Info: EMPTY PATCH LOAD       40 ATOMS
Info: INITIAL TEMPERATURE    300
Info: CENTER OF MASS MOVING INITIALLY? NO
Info: DIELECTRIC             1
Info: EXCLUDE                SCALED ONE-FOUR
Info: 1-4 ELECTROSTATICS SCALED BY 0.833333
Info: MODIFIED 1-4 VDW PARAMETERS WILL BE USED
Info: DCD FILENAME           mobley_2492140_equil.dcd
Info: DCD FREQUENCY          100000
Info: DCD FIRST STEP         100000
Info: DCD FILE WILL CONTAIN UNIT CELL DATA
Info: XST FILENAME           mobley_2492140_equil.xst
Info: XST FREQUENCY          100000
Info: NO VELOCITY DCD OUTPUT
Info: NO FORCE DCD OUTPUT
Info: OUTPUT FILENAME        mobley_2492140_equil
Info: BINARY OUTPUT FILES WILL BE USED
Info: RESTART FILENAME       mobley_2492140_equil.restart
Info: RESTART FREQUENCY      100000
Info: BINARY RESTART FILES WILL BE USED
Info: CUTOFF                 9
Info: PAIRLIST DISTANCE      11
Info: PAIRLIST SHRINK RATE   0.01
Info: PAIRLIST GROW RATE     0.01
Info: PAIRLIST TRIGGER       0.3
Info: PAIRLISTS PER CYCLE    2
Info: PAIRLISTS ENABLED
Info: MARGIN                 8
Info: HYDROGEN GROUP CUTOFF  2.5
Info: PATCH DIMENSION        21.5
Info: ENERGY OUTPUT STEPS    100000
Info: ENERGY EVALUATION STEPS    100000
Info: OUTPUT ENERGY PRECISION 4
Info: CROSSTERM ENERGY INCLUDED IN DIHEDRAL
Info: TIMING OUTPUT STEPS    1000000
Info: PRESSURE OUTPUT STEPS  100000
Info: FIXED ATOMS ACTIVE
Info: LANGEVIN DYNAMICS ACTIVE
Info: LANGEVIN TEMPERATURE   30
Info: LANGEVIN USING BBK INTEGRATOR
Info: LANGEVIN DAMPING COEFFICIENT IS 1 INVERSE PS
Info: LANGEVIN DYNAMICS APPLIED TO HYDROGENS
Info: LANGEVIN PISTON PRESSURE CONTROL ACTIVE
Info:        TARGET PRESSURE IS 1.01325 BAR
Info:     OSCILLATION PERIOD IS 50 FS
Info:             DECAY TIME IS 25 FS
Info:     PISTON TEMPERATURE IS 300 K
Info:       PRESSURE CONTROL IS GROUP-BASED
Info:    INITIAL STRAIN RATE IS 0 0 0
Info:       CELL FLUCTUATION IS ISOTROPIC
Info: PARTICLE MESH EWALD (PME) ACTIVE
Info: PME TOLERANCE               1e-06
Info: PME EWALD COEFFICIENT       0.348832
Info: PME INTERPOLATION ORDER     4
Info: PME GRID DIMENSIONS         36 36 36
Info: PME MAXIMUM GRID SPACING    1
Info: FULL ELECTROSTATIC EVALUATION FREQUENCY      2
Info: USING VERLET I (r-RESPA) MTS SCHEME.
Info: C1 SPLITTING OF LONG RANGE ELECTROSTATICS
Info: PLACING ATOMS IN PATCHES BY HYDROGEN GROUPS
Info: RIGID BONDS TO HYDROGEN : ALL
Info:         ERROR TOLERANCE : 1e-08
Info:          MAX ITERATIONS : 100
Info: RIGID WATER USING SETTLE ALGORITHM
Info: RANDOM NUMBER SEED     1743673664
Info: USE HYDROGEN BONDS?    NO
Info: Using AMBER format force field!
Info: AMBER PARM FILE        mobley_2492140.prmtop
Info: COORDINATE PDB         mobley_2492140.pdb
Info: Exclusions will be read from PARM file!
Info: SCNB (VDW SCALING)     2
Info: USING ARITHMETIC MEAN TO COMBINE L-J SIGMA PARAMETERS
Info: BINARY COORDINATES     mobley_2492140_min.coor
Info: SUMMARY OF PARAMETERS:
Info: 5 BONDS
Info: 4 ANGLES
Info:   4 HARMONIC
Info:   0 COSINE-BASED
Info: 3 DIHEDRAL
Info: 0 IMPROPER
Info: 0 CROSSTERM
Info: 0 VDW
Info: 15 VDW_PAIRS
Info: 0 NBTHOLE_PAIRS
Info: STRUCTURE SUMMARY:
Info: 2906 ATOMS
Info: 2905 BONDS
Info: 12 ANGLES
Info: 15 DIHEDRALS
Info: 0 IMPROPERS
Info: 0 CROSSTERMS
Info: 2926 EXCLUSIONS
Info: 8 FIXED ATOMS
Info: 2899 RIGID BONDS
Info: 1 RIGID BONDS BETWEEN FIXED ATOMS
Info: 5796 DEGREES OF FREEDOM
Info: 973 HYDROGEN GROUPS
Info: 3 ATOMS IN LARGEST HYDROGEN GROUP
Info: 973 MIGRATION GROUPS
Info: 3 ATOMS IN LARGEST MIGRATION GROUP
Info: 7 HYDROGEN GROUPS WITH ALL ATOMS FIXED
Info: TOTAL MASS = 17605.7 amu
Info: TOTAL CHARGE = 0 e
Info: MASS DENSITY = 0.660807 g/cm^3
Info: ATOM DENSITY = 0.0656836 atoms/A^3
Info: ADDED 0 IMPLICIT EXCLUSIONS
Info: NONBONDED TABLE R-SQUARED SPACING: 0.0625
Info: NONBONDED TABLE SIZE: 705 POINTS
Info: REMOVING COM VELOCITY 0.165106 -0.227886 -0.0929821
TCL: Running for 100000 steps
ETITLE: TS BOND ANGLE DIHED IMPRP ELECT VDW BOUNDARY MISC KINETIC TOTAL TEMP POTENTIAL TOTAL3 TEMPAVG PRESSURE GPRESSURE VOLUME PRESSAVG GPRESSAVG
ENERGY: 0 0.0000 0.0000 0.0000 0.0000 -13491.8398 2371.1574 0.0000 0.0000 1759.4170 -9361.2654 305.5138 -11120.6823 -9360.9051 305.5138 452.1779 485.0645 44242.4183 452.1779 485.0645
ENERGY: 100000 0.0000 0.0000 0.0000 0.0000 -14091.6381 2518.3529 0.0000 0.0000 177.8208 -11395.4644 30.8777 -11573.2852 -11395.1261 30.8897 678.5340 715.0910 29249.6836 2.3986 2.4367
TCL: Running 100000 steps at 60 kelvin.
TCL: Setting parameter langevinTemp to 60
TCL: Running for 100000 steps
ETITLE: TS BOND ANGLE DIHED IMPRP ELECT VDW BOUNDARY MISC KINETIC TOTAL TEMP POTENTIAL TOTAL3 TEMPAVG PRESSURE GPRESSURE VOLUME PRESSAVG GPRESSAVG
ENERGY: 100000 0.0000 0.0000 0.0000 0.0000 -14091.6381 2518.3529 0.0000 0.0000 177.7330 -11395.5522 30.8624 -11573.2852 -11395.2366 30.8624 665.9289 715.1691 29249.6836 665.9289 715.1691
ENERGY: 200000 0.0000 0.0000 0.0000 0.0000 -13864.2869 2334.3222 0.0000 0.0000 342.9408 -11187.0239 59.5499 -11529.9647 -11186.6416 59.9249 -551.6176 -529.9166 29093.8304 3.8943 3.8655
TCL: Running 100000 steps at 90 kelvin.
TCL: Setting parameter langevinTemp to 90
TCL: Running for 100000 steps
ETITLE: TS BOND ANGLE DIHED IMPRP ELECT VDW BOUNDARY MISC KINETIC TOTAL TEMP POTENTIAL TOTAL3 TEMPAVG PRESSURE GPRESSURE VOLUME PRESSAVG GPRESSAVG
ENERGY: 200000 0.0000 0.0000 0.0000 0.0000 -13864.2869 2334.3222 0.0000 0.0000 342.7710 -11187.1937 59.5204 -11529.9647 -11186.4350 59.5204 -578.0855 -530.5590 29093.8304 -578.0855 -530.5590
ENERGY: 300000 0.0000 0.0000 0.0000 0.0000 -13695.1924 2304.0382 0.0000 0.0000 530.7915 -10860.3627 92.1692 -11391.1543 -10858.8341 89.8519 -319.4583 -240.4539 28807.2649 3.8497 3.8260
TCL: Running 100000 steps at 120 kelvin.
TCL: Setting parameter langevinTemp to 120
TCL: Running for 100000 steps
ETITLE: TS BOND ANGLE DIHED IMPRP ELECT VDW BOUNDARY MISC KINETIC TOTAL TEMP POTENTIAL TOTAL3 TEMPAVG PRESSURE GPRESSURE VOLUME PRESSAVG GPRESSAVG
ENERGY: 300000 0.0000 0.0000 0.0000 0.0000 -13695.1924 2304.0382 0.0000 0.0000 530.5401 -10860.6142 92.1256 -11391.1543 -10859.5585 92.1256 -296.2760 -240.6083 28807.2649 -296.2760 -240.6083
ENERGY: 400000 0.0000 0.0000 0.0000 0.0000 -13614.2284 2324.8138 0.0000 0.0000 673.8359 -10615.5788 117.0082 -11289.4146 -10613.5018 119.9840 250.0701 311.9965 28614.7771 4.2252 4.2493
TCL: Running 100000 steps at 150 kelvin.
TCL: Setting parameter langevinTemp to 150
TCL: Running for 100000 steps
ETITLE: TS BOND ANGLE DIHED IMPRP ELECT VDW BOUNDARY MISC KINETIC TOTAL TEMP POTENTIAL TOTAL3 TEMPAVG PRESSURE GPRESSURE VOLUME PRESSAVG GPRESSAVG
ENERGY: 400000 0.0000 0.0000 0.0000 0.0000 -13614.2284 2324.8138 0.0000 0.0000 673.4728 -10615.9419 116.9451 -11289.4146 -10614.8331 116.9451 260.6253 312.5492 28614.7771 260.6253 312.5492
ENERGY: 500000 0.0000 0.0000 0.0000 0.0000 -13355.0818 2208.0756 0.0000 0.0000 843.3775 -10303.6287 146.4482 -11147.0062 -10302.1584 149.9126 -216.8554 -121.0725 28563.0170 3.2829 3.1715
TCL: Running 100000 steps at 180 kelvin.
TCL: Setting parameter langevinTemp to 180
TCL: Running for 100000 steps
ETITLE: TS BOND ANGLE DIHED IMPRP ELECT VDW BOUNDARY MISC KINETIC TOTAL TEMP POTENTIAL TOTAL3 TEMPAVG PRESSURE GPRESSURE VOLUME PRESSAVG GPRESSAVG
ENERGY: 500000 0.0000 0.0000 0.0000 0.0000 -13355.0818 2208.0756 0.0000 0.0000 842.9441 -10304.0621 146.3729 -11147.0062 -10302.6462 146.3729 -179.1883 -122.6227 28563.0170 -179.1883 -122.6227
ENERGY: 600000 0.0000 0.0000 0.0000 0.0000 -13030.3924 2138.4651 0.0000 0.0000 1013.2376 -9878.6897 175.9435 -10891.9272 -9875.3244 179.3551 135.6458 253.4782 28544.7116 2.9553 2.9069
TCL: Running 100000 steps at 210 kelvin.
TCL: Setting parameter langevinTemp to 210
TCL: Running for 100000 steps
ETITLE: TS BOND ANGLE DIHED IMPRP ELECT VDW BOUNDARY MISC KINETIC TOTAL TEMP POTENTIAL TOTAL3 TEMPAVG PRESSURE GPRESSURE VOLUME PRESSAVG GPRESSAVG
ENERGY: 600000 0.0000 0.0000 0.0000 0.0000 -13030.3924 2138.4651 0.0000 0.0000 1012.7125 -9879.2147 175.8523 -10891.9272 -9877.0998 175.8523 183.2302 254.6128 28544.7116 183.2302 254.6128
ENERGY: 700000 0.0000 0.0000 0.0000 0.0000 -12235.9034 1849.1801 0.0000 0.0000 1184.7993 -9201.9240 205.7343 -10386.7233 -9200.4911 209.9170 -312.8053 -283.8689 28727.5209 3.5587 3.6026
TCL: Running 100000 steps at 240 kelvin.
TCL: Setting parameter langevinTemp to 240
TCL: Running for 100000 steps
ETITLE: TS BOND ANGLE DIHED IMPRP ELECT VDW BOUNDARY MISC KINETIC TOTAL TEMP POTENTIAL TOTAL3 TEMPAVG PRESSURE GPRESSURE VOLUME PRESSAVG GPRESSAVG
ENERGY: 700000 0.0000 0.0000 0.0000 0.0000 -12235.9034 1849.1801 0.0000 0.0000 1184.1653 -9202.5580 205.6243 -10386.7233 -9200.7589 205.6243 -362.9011 -284.8453 28727.5209 -362.9011 -284.8453
ENERGY: 800000 0.0000 0.0000 0.0000 0.0000 -11595.9304 1620.7360 0.0000 0.0000 1388.2235 -8586.9709 241.0579 -9975.1944 -8584.9163 239.2881 -550.1894 -489.1707 28557.4439 3.9495 3.8677
TCL: Running 100000 steps at 270 kelvin.
TCL: Setting parameter langevinTemp to 270
TCL: Running for 100000 steps
ETITLE: TS BOND ANGLE DIHED IMPRP ELECT VDW BOUNDARY MISC KINETIC TOTAL TEMP POTENTIAL TOTAL3 TEMPAVG PRESSURE GPRESSURE VOLUME PRESSAVG GPRESSAVG
ENERGY: 800000 0.0000 0.0000 0.0000 0.0000 -11595.9304 1620.7360 0.0000 0.0000 1387.5299 -8587.6646 240.9375 -9975.1944 -8585.5478 240.9375 -590.5953 -490.4371 28557.4439 -590.5953 -490.4371
ENERGY: 900000 0.0000 0.0000 0.0000 0.0000 -11054.9635 1507.6671 0.0000 0.0000 1497.3294 -8049.9670 260.0036 -9547.2964 -8048.0976 269.6808 -392.2188 -207.6439 29118.6962 2.0102 2.0433
TCL: Running 1000000 steps at 300 kelvin.
TCL: Setting parameter langevinTemp to 300
TCL: Running for 1000000 steps
ETITLE: TS BOND ANGLE DIHED IMPRP ELECT VDW BOUNDARY MISC KINETIC TOTAL TEMP POTENTIAL TOTAL3 TEMPAVG PRESSURE GPRESSURE VOLUME PRESSAVG GPRESSAVG
ENERGY: 900000 0.0000 0.0000 0.0000 0.0000 -11054.9635 1507.6671 0.0000 0.0000 1496.5737 -8050.7227 259.8724 -9547.2964 -8047.9338 259.8724 -311.7693 -209.7784 29118.6962 -311.7693 -209.7784
ENERGY: 1100000 0.0000 0.0000 0.0000 0.0000 -10619.3843 1390.6600 0.0000 0.0000 1817.4577 -7411.2666 315.5922 -9228.7243 -7408.5884 300.1457 -346.8463 -281.1335 29827.5755 3.4545 3.3983
ENERGY: 1300000 0.0000 0.0000 0.0000 0.0000 -10625.6564 1500.9242 0.0000 0.0000 1751.1348 -7373.5974 304.0756 -9124.7322 -7369.9641 300.7873 830.6874 819.6764 30179.4552 2.2740 2.1286
ENERGY: 1500000 0.0000 0.0000 0.0000 0.0000 -10383.6762 1390.5446 0.0000 0.0000 1713.3553 -7279.7763 297.5154 -8993.1316 -7275.8941 300.6564 113.4764 173.9996 30248.0186 3.2223 3.0925
ENERGY: 1700000 0.0000 0.0000 0.0000 0.0000 -10532.7797 1397.7852 0.0000 0.0000 1670.3166 -7464.6779 290.0419 -9134.9945 -7460.9738 300.2472 -79.9064 14.0333 29785.0772 3.0641 3.0003
ENERGY: 1900000 0.0000 0.0000 0.0000 0.0000 -10701.3113 1493.9759 0.0000 0.0000 1758.2260 -7449.1095 305.3070 -9207.3354 -7446.7442 300.4899 909.3326 941.2282 29337.2739 3.8784 3.8210
TCL: Exiting due to exit command.
