Info: SIMULATION PARAMETERS:
Info: TIMESTEP               2
Info: NUMBER OF STEPS        0
Info: STEPS PER CYCLE        10
Info: PERIODIC CELL BASIS 1  37.435 0 0
Info: PERIODIC CELL BASIS 2  0 34.26 0
Info: PERIODIC CELL BASIS 3  0 0 33.876
Info: PERIODIC CELL CENTER   0 0 0
Info: WRAPPING WATERS AROUND PERIODIC BOUNDARIES ON OUTPUT.
Info: WRAPPING ALL CLUSTERS AROUND PERIODIC BOUNDARIES ON OUTPUT.
Info: FIRST LDB TIMESTEP     50
Info: LAST LDB TIMESTEP     -1
Info: HOM BACKGROUND SCALING 1
Info: PME BACKGROUND SCALING 1
Info: MIN ATOMS PER PATCH    40
Info: EMPTY PATCH LOAD       40 ATOMS
Info: INITIAL TEMPERATURE    300
Info: CENTER OF MASS MOVING INITIALLY? NO
Info: DIELECTRIC             1
Info: EXCLUDE                SCALED ONE-FOUR
Info: 1-4 ELECTROSTATICS SCALED BY 0.833333
Info: MODIFIED 1-4 VDW PARAMETERS WILL BE USED
Info: DCD FILENAME           mobley_1792062_equil.dcd
Info: DCD FREQUENCY          100000
Info: DCD FIRST STEP         100000
Info: DCD FILE WILL CONTAIN UNIT CELL DATA
Info: XST FILENAME           mobley_1792062_equil.xst
Info: XST FREQUENCY          100000
Info: NO VELOCITY DCD OUTPUT
Info: NO FORCE DCD OUTPUT
Info: OUTPUT FILENAME        mobley_1792062_equil
Info: BINARY OUTPUT FILES WILL BE USED
Info: RESTART FILENAME       mobley_1792062_equil.restart
Info: RESTART FREQUENCY      100000
Info: BINARY RESTART FILES WILL BE USED
Info: CUTOFF                 9
Info: PAIRLIST DISTANCE      11
Info: PAIRLIST SHRINK RATE   0.01
Info: PAIRLIST GROW RATE     0.01
Info: PAIRLIST TRIGGER       0.3
Info: PAIRLISTS PER CYCLE    2
Info: PAIRLISTS ENABLED
Info: MARGIN                 8
Info: HYDROGEN GROUP CUTOFF  2.5
Info: PATCH DIMENSION        21.5
Info: ENERGY OUTPUT STEPS    100000
Info: ENERGY EVALUATION STEPS    100000
Info: OUTPUT ENERGY PRECISION 4
Info: CROSSTERM ENERGY INCLUDED IN DIHEDRAL
Info: TIMING OUTPUT STEPS    1000000
Info: PRESSURE OUTPUT STEPS  100000
Info: FIXED ATOMS ACTIVE
Info: LANGEVIN DYNAMICS ACTIVE
Info: LANGEVIN TEMPERATURE   30
Info: LANGEVIN USING BBK INTEGRATOR
Info: LANGEVIN DAMPING COEFFICIENT IS 1 INVERSE PS
Info: LANGEVIN DYNAMICS APPLIED TO HYDROGENS
Info: LANGEVIN PISTON PRESSURE CONTROL ACTIVE
Info:        TARGET PRESSURE IS 1.01325 BAR
Info:     OSCILLATION PERIOD IS 50 FS
Info:             DECAY TIME IS 25 FS
Info:     PISTON TEMPERATURE IS 300 K
Info:       PRESSURE CONTROL IS GROUP-BASED
Info:    INITIAL STRAIN RATE IS 0 0 0
Info:       CELL FLUCTUATION IS ISOTROPIC
Info: PARTICLE MESH EWALD (PME) ACTIVE
Info: PME TOLERANCE               1e-06
Info: PME EWALD COEFFICIENT       0.348832
Info: PME INTERPOLATION ORDER     4
Info: PME GRID DIMENSIONS         40 36 36
Info: PME MAXIMUM GRID SPACING    1
Info: FULL ELECTROSTATIC EVALUATION FREQUENCY      2
Info: USING VERLET I (r-RESPA) MTS SCHEME.
Info: C1 SPLITTING OF LONG RANGE ELECTROSTATICS
Info: PLACING ATOMS IN PATCHES BY HYDROGEN GROUPS
Info: RIGID BONDS TO HYDROGEN : ALL
Info:         ERROR TOLERANCE : 1e-08
Info:          MAX ITERATIONS : 100
Info: RIGID WATER USING SETTLE ALGORITHM
Info: RANDOM NUMBER SEED     1743900490
Info: USE HYDROGEN BONDS?    NO
Info: Using AMBER format force field!
Info: AMBER PARM FILE        mobley_1792062.prmtop
Info: COORDINATE PDB         mobley_1792062.pdb
Info: Exclusions will be read from PARM file!
Info: SCNB (VDW SCALING)     2
Info: USING ARITHMETIC MEAN TO COMBINE L-J SIGMA PARAMETERS
Info: BINARY COORDINATES     mobley_1792062_min.coor
Info: SUMMARY OF PARAMETERS:
Info: 5 BONDS
Info: 4 ANGLES
Info:   4 HARMONIC
Info:   0 COSINE-BASED
Info: 4 DIHEDRAL
Info: 0 IMPROPER
Info: 0 CROSSTERM
Info: 0 VDW
Info: 15 VDW_PAIRS
Info: 0 NBTHOLE_PAIRS
Info: STRUCTURE SUMMARY:
Info: 2957 ATOMS
Info: 2956 BONDS
Info: 12 ANGLES
Info: 14 DIHEDRALS
Info: 0 IMPROPERS
Info: 0 CROSSTERMS
Info: 2977 EXCLUSIONS
Info: 8 FIXED ATOMS
Info: 2953 RIGID BONDS
Info: 4 RIGID BONDS BETWEEN FIXED ATOMS
Info: 5898 DEGREES OF FREEDOM
Info: 987 HYDROGEN GROUPS
Info: 3 ATOMS IN LARGEST HYDROGEN GROUP
Info: 987 MIGRATION GROUPS
Info: 3 ATOMS IN LARGEST MIGRATION GROUP
Info: 4 HYDROGEN GROUPS WITH ALL ATOMS FIXED
Info: TOTAL MASS = 17897.6 amu
Info: TOTAL CHARGE = 0.000200002 e
Info: MASS DENSITY = 0.684063 g/cm^3
Info: ATOM DENSITY = 0.0680603 atoms/A^3
Info: ADDED 0 IMPLICIT EXCLUSIONS
Info: NONBONDED TABLE R-SQUARED SPACING: 0.0625
Info: NONBONDED TABLE SIZE: 705 POINTS
Info: REMOVING COM VELOCITY -0.00265315 -0.19804 -0.140936
TCL: Running for 100000 steps
ETITLE: TS BOND ANGLE DIHED IMPRP ELECT VDW BOUNDARY MISC KINETIC TOTAL TEMP POTENTIAL TOTAL3 TEMPAVG PRESSURE GPRESSURE VOLUME PRESSAVG GPRESSAVG
ENERGY: 0 0.0000 0.0000 0.0000 0.0000 -13646.4835 2362.8125 0.0000 0.0000 1812.3071 -9471.3639 309.2555 -11283.6711 -9470.9788 309.2555 202.6861 233.9704 43446.7525 202.6861 233.9704
ENERGY: 100000 0.0000 0.0000 0.0000 0.0000 -14234.6362 2455.8034 0.0000 0.0000 181.4275 -11597.4053 30.9591 -11778.8328 -11597.1628 30.9822 -35.0975 32.1842 28670.3228 5.0405 5.0430
TCL: Running 100000 steps at 60 kelvin.
TCL: Setting parameter langevinTemp to 60
TCL: Running for 100000 steps
ETITLE: TS BOND ANGLE DIHED IMPRP ELECT VDW BOUNDARY MISC KINETIC TOTAL TEMP POTENTIAL TOTAL3 TEMPAVG PRESSURE GPRESSURE VOLUME PRESSAVG GPRESSAVG
ENERGY: 100000 0.0000 0.0000 0.0000 0.0000 -14234.6362 2455.8034 0.0000 0.0000 181.3407 -11597.4921 30.9443 -11778.8328 -11597.1368 30.9443 -26.9120 31.8834 28670.3228 -26.9120 31.8834
ENERGY: 200000 0.0000 0.0000 0.0000 0.0000 -14240.3113 2510.3974 0.0000 0.0000 348.3496 -11381.5643 59.4430 -11729.9139 -11380.6534 60.0569 518.0640 582.0018 28753.9011 3.9759 3.9797
TCL: Running 100000 steps at 90 kelvin.
TCL: Setting parameter langevinTemp to 90
TCL: Running for 100000 steps
ETITLE: TS BOND ANGLE DIHED IMPRP ELECT VDW BOUNDARY MISC KINETIC TOTAL TEMP POTENTIAL TOTAL3 TEMPAVG PRESSURE GPRESSURE VOLUME PRESSAVG GPRESSAVG
ENERGY: 200000 0.0000 0.0000 0.0000 0.0000 -14240.3113 2510.3974 0.0000 0.0000 348.1784 -11381.7356 59.4138 -11729.9139 -11381.1055 59.4138 521.5985 582.5636 28753.9011 521.5985 582.5636
ENERGY: 300000 0.0000 0.0000 0.0000 0.0000 -14073.6906 2436.6271 0.0000 0.0000 536.9567 -11100.1068 91.6273 -11637.0635 -11098.4162 89.8617 516.4904 550.1552 28450.8228 4.4272 4.4513
TCL: Running 100000 steps at 120 kelvin.
TCL: Setting parameter langevinTemp to 120
TCL: Running for 100000 steps
ETITLE: TS BOND ANGLE DIHED IMPRP ELECT VDW BOUNDARY MISC KINETIC TOTAL TEMP POTENTIAL TOTAL3 TEMPAVG PRESSURE GPRESSURE VOLUME PRESSAVG GPRESSAVG
ENERGY: 300000 0.0000 0.0000 0.0000 0.0000 -14073.6906 2436.6271 0.0000 0.0000 536.7059 -11100.3576 91.5845 -11637.0635 -11099.3161 91.5845 509.8848 550.8123 28450.8228 509.8848 550.8123
ENERGY: 400000 0.0000 0.0000 0.0000 0.0000 -13807.8963 2276.4129 0.0000 0.0000 692.3715 -10839.1120 118.1476 -11531.4835 -10837.4470 120.0732 -564.8894 -542.7292 28827.4107 5.5771 5.5870
TCL: Running 100000 steps at 150 kelvin.
TCL: Setting parameter langevinTemp to 150
TCL: Running for 100000 steps
ETITLE: TS BOND ANGLE DIHED IMPRP ELECT VDW BOUNDARY MISC KINETIC TOTAL TEMP POTENTIAL TOTAL3 TEMPAVG PRESSURE GPRESSURE VOLUME PRESSAVG GPRESSAVG
ENERGY: 400000 0.0000 0.0000 0.0000 0.0000 -13807.8963 2276.4129 0.0000 0.0000 692.0179 -10839.4656 118.0872 -11531.4835 -10838.1240 118.0872 -576.6905 -543.3206 28827.4107 -576.6905 -543.3206
ENERGY: 500000 0.0000 0.0000 0.0000 0.0000 -13637.5308 2310.0434 0.0000 0.0000 898.5792 -10428.9082 153.3352 -11327.4874 -10427.5801 149.7834 359.0906 383.0906 29051.9288 2.5456 2.6255
TCL: Running 100000 steps at 180 kelvin.
TCL: Setting parameter langevinTemp to 180
TCL: Running for 100000 steps
ETITLE: TS BOND ANGLE DIHED IMPRP ELECT VDW BOUNDARY MISC KINETIC TOTAL TEMP POTENTIAL TOTAL3 TEMPAVG PRESSURE GPRESSURE VOLUME PRESSAVG GPRESSAVG
ENERGY: 500000 0.0000 0.0000 0.0000 0.0000 -13637.5308 2310.0434 0.0000 0.0000 898.1265 -10429.3609 153.2580 -11327.4874 -10427.5881 153.2580 346.5186 382.6112 29051.9288 346.5186 382.6112
ENERGY: 600000 0.0000 0.0000 0.0000 0.0000 -13236.0039 2174.4758 0.0000 0.0000 1075.4594 -9986.0687 183.5184 -11061.5281 -9982.4243 180.3325 551.0670 506.1792 28720.6238 3.4336 3.4154
TCL: Running 100000 steps at 210 kelvin.
TCL: Setting parameter langevinTemp to 210
TCL: Running for 100000 steps
ETITLE: TS BOND ANGLE DIHED IMPRP ELECT VDW BOUNDARY MISC KINETIC TOTAL TEMP POTENTIAL TOTAL3 TEMPAVG PRESSURE GPRESSURE VOLUME PRESSAVG GPRESSAVG
ENERGY: 600000 0.0000 0.0000 0.0000 0.0000 -13236.0039 2174.4758 0.0000 0.0000 1074.9235 -9986.6046 183.4270 -11061.5281 -9984.5361 183.4270 450.7773 506.2697 28720.6238 450.7773 506.2697
ENERGY: 700000 0.0000 0.0000 0.0000 0.0000 -12410.4412 1860.6697 0.0000 0.0000 1227.5232 -9322.2483 209.4669 -10549.7715 -9319.7145 209.6815 -256.4029 -191.9168 28860.4195 4.3378 4.3629
TCL: Running 100000 steps at 240 kelvin.
TCL: Setting parameter langevinTemp to 240
TCL: Running for 100000 steps
ETITLE: TS BOND ANGLE DIHED IMPRP ELECT VDW BOUNDARY MISC KINETIC TOTAL TEMP POTENTIAL TOTAL3 TEMPAVG PRESSURE GPRESSURE VOLUME PRESSAVG GPRESSAVG
ENERGY: 700000 0.0000 0.0000 0.0000 0.0000 -12410.4412 1860.6697 0.0000 0.0000 1226.9141 -9322.8573 209.3629 -10549.7715 -9320.4755 209.3629 -269.8889 -191.7771 28860.4195 -269.8889 -191.7771
ENERGY: 800000 0.0000 0.0000 0.0000 0.0000 -11735.3742 1683.3335 0.0000 0.0000 1365.0884 -8686.9523 232.9412 -10052.0407 -8685.4501 239.5826 -307.8010 -240.6869 29523.6592 4.5466 4.5344
TCL: Running 100000 steps at 270 kelvin.
TCL: Setting parameter langevinTemp to 270
TCL: Running for 100000 steps
ETITLE: TS BOND ANGLE DIHED IMPRP ELECT VDW BOUNDARY MISC KINETIC TOTAL TEMP POTENTIAL TOTAL3 TEMPAVG PRESSURE GPRESSURE VOLUME PRESSAVG GPRESSAVG
ENERGY: 800000 0.0000 0.0000 0.0000 0.0000 -11735.3742 1683.3335 0.0000 0.0000 1364.3626 -8687.6781 232.8174 -10052.0407 -8685.1686 232.8174 -329.3889 -242.7780 29523.6592 -329.3889 -242.7780
ENERGY: 900000 0.0000 0.0000 0.0000 0.0000 -11272.4100 1534.3351 0.0000 0.0000 1570.0929 -8167.9820 267.9236 -9738.0749 -8164.8541 269.7848 -461.5272 -418.0981 29834.8715 2.9509 2.8554
TCL: Running 1000000 steps at 300 kelvin.
TCL: Setting parameter langevinTemp to 300
TCL: Running for 1000000 steps
ETITLE: TS BOND ANGLE DIHED IMPRP ELECT VDW BOUNDARY MISC KINETIC TOTAL TEMP POTENTIAL TOTAL3 TEMPAVG PRESSURE GPRESSURE VOLUME PRESSAVG GPRESSAVG
ENERGY: 900000 0.0000 0.0000 0.0000 0.0000 -11272.4100 1534.3351 0.0000 0.0000 1569.3014 -8168.7735 267.7885 -9738.0749 -8166.2236 267.7885 -506.3409 -419.1861 29834.8715 -506.3409 -419.1861
ENERGY: 1100000 0.0000 0.0000 0.0000 0.0000 -10684.7681 1390.3138 0.0000 0.0000 1726.7379 -7567.7165 294.6538 -9294.4544 -7565.4930 299.8642 -569.1232 -476.4432 30771.1884 2.8145 2.8511
ENERGY: 1300000 0.0000 0.0000 0.0000 0.0000 -10715.9912 1488.8907 0.0000 0.0000 1770.6262 -7456.4744 302.1430 -9227.1006 -7453.0304 300.2573 776.4836 860.3083 30302.5067 2.3672 2.3251
ENERGY: 1500000 0.0000 0.0000 0.0000 0.0000 -10846.9745 1515.1623 0.0000 0.0000 1737.6521 -7594.1601 296.5162 -9331.8122 -7590.4513 300.3399 455.8850 525.9020 30608.3605 3.0187 2.9533
ENERGY: 1700000 0.0000 0.0000 0.0000 0.0000 -10687.0350 1377.5665 0.0000 0.0000 1707.5351 -7601.9334 291.3770 -9309.4685 -7597.6794 300.7005 -529.4277 -445.0537 30438.8285 3.5448 3.6683
ENERGY: 1900000 0.0000 0.0000 0.0000 0.0000 -10679.7902 1423.2169 0.0000 0.0000 1722.3775 -7534.1958 293.9097 -9256.5733 -7531.0417 299.9248 -103.9458 1.8726 30662.6916 2.5951 2.4643
TCL: Exiting due to exit command.
