Info: SIMULATION PARAMETERS:
Info: TIMESTEP               2
Info: NUMBER OF STEPS        0
Info: STEPS PER CYCLE        10
Info: PERIODIC CELL BASIS 1  37.435 0 0
Info: PERIODIC CELL BASIS 2  0 36.451 0
Info: PERIODIC CELL BASIS 3  0 0 31.855
Info: PERIODIC CELL CENTER   0 0 0
Info: WRAPPING WATERS AROUND PERIODIC BOUNDARIES ON OUTPUT.
Info: WRAPPING ALL CLUSTERS AROUND PERIODIC BOUNDARIES ON OUTPUT.
Info: FIRST LDB TIMESTEP     50
Info: LAST LDB TIMESTEP     -1
Info: HOM BACKGROUND SCALING 1
Info: PME BACKGROUND SCALING 1
Info: MIN ATOMS PER PATCH    40
Info: EMPTY PATCH LOAD       40 ATOMS
Info: INITIAL TEMPERATURE    300
Info: CENTER OF MASS MOVING INITIALLY? NO
Info: DIELECTRIC             1
Info: EXCLUDE                SCALED ONE-FOUR
Info: 1-4 ELECTROSTATICS SCALED BY 0.833333
Info: MODIFIED 1-4 VDW PARAMETERS WILL BE USED
Info: DCD FILENAME           mobley_3183805_equil.dcd
Info: DCD FREQUENCY          100000
Info: DCD FIRST STEP         100000
Info: DCD FILE WILL CONTAIN UNIT CELL DATA
Info: XST FILENAME           mobley_3183805_equil.xst
Info: XST FREQUENCY          100000
Info: NO VELOCITY DCD OUTPUT
Info: NO FORCE DCD OUTPUT
Info: OUTPUT FILENAME        mobley_3183805_equil
Info: BINARY OUTPUT FILES WILL BE USED
Info: RESTART FILENAME       mobley_3183805_equil.restart
Info: RESTART FREQUENCY      100000
Info: BINARY RESTART FILES WILL BE USED
Info: CUTOFF                 9
Info: PAIRLIST DISTANCE      11
Info: PAIRLIST SHRINK RATE   0.01
Info: PAIRLIST GROW RATE     0.01
Info: PAIRLIST TRIGGER       0.3
Info: PAIRLISTS PER CYCLE    2
Info: PAIRLISTS ENABLED
Info: MARGIN                 8
Info: HYDROGEN GROUP CUTOFF  2.5
Info: PATCH DIMENSION        21.5
Info: ENERGY OUTPUT STEPS    100000
Info: ENERGY EVALUATION STEPS    100000
Info: OUTPUT ENERGY PRECISION 4
Info: CROSSTERM ENERGY INCLUDED IN DIHEDRAL
Info: TIMING OUTPUT STEPS    1000000
Info: PRESSURE OUTPUT STEPS  100000
Info: FIXED ATOMS ACTIVE
Info: LANGEVIN DYNAMICS ACTIVE
Info: LANGEVIN TEMPERATURE   30
Info: LANGEVIN USING BBK INTEGRATOR
Info: LANGEVIN DAMPING COEFFICIENT IS 1 INVERSE PS
Info: LANGEVIN DYNAMICS APPLIED TO HYDROGENS
Info: LANGEVIN PISTON PRESSURE CONTROL ACTIVE
Info:        TARGET PRESSURE IS 1.01325 BAR
Info:     OSCILLATION PERIOD IS 50 FS
Info:             DECAY TIME IS 25 FS
Info:     PISTON TEMPERATURE IS 300 K
Info:       PRESSURE CONTROL IS GROUP-BASED
Info:    INITIAL STRAIN RATE IS 0 0 0
Info:       CELL FLUCTUATION IS ISOTROPIC
Info: PARTICLE MESH EWALD (PME) ACTIVE
Info: PME TOLERANCE               1e-06
Info: PME EWALD COEFFICIENT       0.348832
Info: PME INTERPOLATION ORDER     4
Info: PME GRID DIMENSIONS         40 40 32
Info: PME MAXIMUM GRID SPACING    1
Info: FULL ELECTROSTATIC EVALUATION FREQUENCY      2
Info: USING VERLET I (r-RESPA) MTS SCHEME.
Info: C1 SPLITTING OF LONG RANGE ELECTROSTATICS
Info: PLACING ATOMS IN PATCHES BY HYDROGEN GROUPS
Info: RIGID BONDS TO HYDROGEN : ALL
Info:         ERROR TOLERANCE : 1e-08
Info:          MAX ITERATIONS : 100
Info: RIGID WATER USING SETTLE ALGORITHM
Info: RANDOM NUMBER SEED     1743764170
Info: USE HYDROGEN BONDS?    NO
Info: Using AMBER format force field!
Info: AMBER PARM FILE        mobley_3183805.prmtop
Info: COORDINATE PDB         mobley_3183805.pdb
Info: Exclusions will be read from PARM file!
Info: SCNB (VDW SCALING)     2
Info: USING ARITHMETIC MEAN TO COMBINE L-J SIGMA PARAMETERS
Info: BINARY COORDINATES     mobley_3183805_min.coor
Info: SUMMARY OF PARAMETERS:
Info: 6 BONDS
Info: 5 ANGLES
Info:   5 HARMONIC
Info:   0 COSINE-BASED
Info: 3 DIHEDRAL
Info: 0 IMPROPER
Info: 0 CROSSTERM
Info: 0 VDW
Info: 21 VDW_PAIRS
Info: 0 NBTHOLE_PAIRS
Info: STRUCTURE SUMMARY:
Info: 2952 ATOMS
Info: 2952 BONDS
Info: 36 ANGLES
Info: 48 DIHEDRALS
Info: 0 IMPROPERS
Info: 0 CROSSTERMS
Info: 3027 EXCLUSIONS
Info: 21 FIXED ATOMS
Info: 2943 RIGID BONDS
Info: 12 RIGID BONDS BETWEEN FIXED ATOMS
Info: 5862 DEGREES OF FREEDOM
Info: 986 HYDROGEN GROUPS
Info: 4 ATOMS IN LARGEST HYDROGEN GROUP
Info: 986 MIGRATION GROUPS
Info: 4 ATOMS IN LARGEST MIGRATION GROUP
Info: 9 HYDROGEN GROUPS WITH ALL ATOMS FIXED
Info: TOTAL MASS = 17721.8 amu
Info: TOTAL CHARGE = 0.000399988 e
Info: MASS DENSITY = 0.677022 g/cm^3
Info: ATOM DENSITY = 0.0679128 atoms/A^3
Info: ADDED 0 IMPLICIT EXCLUSIONS
Info: NONBONDED TABLE R-SQUARED SPACING: 0.0625
Info: NONBONDED TABLE SIZE: 705 POINTS
Info: REMOVING COM VELOCITY -0.0409141 -0.195321 -0.0958014
TCL: Running for 100000 steps
ETITLE: TS BOND ANGLE DIHED IMPRP ELECT VDW BOUNDARY MISC KINETIC TOTAL TEMP POTENTIAL TOTAL3 TEMPAVG PRESSURE GPRESSURE VOLUME PRESSAVG GPRESSAVG
ENERGY: 0 0.0000 0.0000 0.0000 0.0000 -13665.5554 2394.9671 0.0000 0.0000 1768.8947 -9501.6935 303.7012 -11270.5882 -9501.3239 303.7012 276.2759 306.0322 43467.5232 276.2759 306.0322
ENERGY: 100000 0.0000 0.0000 0.0000 0.0000 -14227.9405 2495.5608 0.0000 0.0000 178.8021 -11553.5776 30.6985 -11732.3797 -11553.0461 30.8964 126.4415 161.7714 28926.0380 5.5553 5.5042
TCL: Running 100000 steps at 60 kelvin.
TCL: Setting parameter langevinTemp to 60
TCL: Running for 100000 steps
ETITLE: TS BOND ANGLE DIHED IMPRP ELECT VDW BOUNDARY MISC KINETIC TOTAL TEMP POTENTIAL TOTAL3 TEMPAVG PRESSURE GPRESSURE VOLUME PRESSAVG GPRESSAVG
ENERGY: 100000 0.0000 0.0000 0.0000 0.0000 -14227.9405 2495.5608 0.0000 0.0000 178.7176 -11553.6620 30.6840 -11732.3797 -11553.2736 30.6840 110.9087 161.9286 28926.0380 110.9087 161.9286
ENERGY: 200000 0.0000 0.0000 0.0000 0.0000 -14108.0180 2451.2770 0.0000 0.0000 366.0087 -11290.7323 62.8400 -11656.7411 -11289.8696 59.9552 132.3378 187.3628 28816.2577 3.8661 3.8484
TCL: Running 100000 steps at 90 kelvin.
TCL: Setting parameter langevinTemp to 90
TCL: Running for 100000 steps
ETITLE: TS BOND ANGLE DIHED IMPRP ELECT VDW BOUNDARY MISC KINETIC TOTAL TEMP POTENTIAL TOTAL3 TEMPAVG PRESSURE GPRESSURE VOLUME PRESSAVG GPRESSAVG
ENERGY: 200000 0.0000 0.0000 0.0000 0.0000 -14108.0180 2451.2770 0.0000 0.0000 365.8383 -11290.9027 62.8107 -11656.7411 -11290.0794 62.8107 123.6552 187.0873 28816.2577 123.6552 187.0873
ENERGY: 300000 0.0000 0.0000 0.0000 0.0000 -14050.4115 2480.9507 0.0000 0.0000 512.0143 -11057.4466 87.9076 -11569.4608 -11055.8561 89.8353 911.1139 977.0684 28498.8992 3.9877 4.0400
TCL: Running 100000 steps at 120 kelvin.
TCL: Setting parameter langevinTemp to 120
TCL: Running for 100000 steps
ETITLE: TS BOND ANGLE DIHED IMPRP ELECT VDW BOUNDARY MISC KINETIC TOTAL TEMP POTENTIAL TOTAL3 TEMPAVG PRESSURE GPRESSURE VOLUME PRESSAVG GPRESSAVG
ENERGY: 300000 0.0000 0.0000 0.0000 0.0000 -14050.4115 2480.9507 0.0000 0.0000 511.7473 -11057.7135 87.8618 -11569.4608 -11056.7577 87.8618 924.7687 977.5155 28498.8992 924.7687 977.5155
ENERGY: 400000 0.0000 0.0000 0.0000 0.0000 -13758.5173 2326.5020 0.0000 0.0000 705.1776 -10726.8376 121.0718 -11432.0152 -10725.7261 119.8841 115.5036 163.8345 28550.8708 2.9380 2.9469
TCL: Running 100000 steps at 150 kelvin.
TCL: Setting parameter langevinTemp to 150
TCL: Running for 100000 steps
ETITLE: TS BOND ANGLE DIHED IMPRP ELECT VDW BOUNDARY MISC KINETIC TOTAL TEMP POTENTIAL TOTAL3 TEMPAVG PRESSURE GPRESSURE VOLUME PRESSAVG GPRESSAVG
ENERGY: 400000 0.0000 0.0000 0.0000 0.0000 -13758.5173 2326.5020 0.0000 0.0000 704.8284 -10727.1869 121.0119 -11432.0152 -10725.4675 121.0119 119.4417 163.7390 28550.8708 119.4417 163.7390
ENERGY: 500000 0.0000 0.0000 0.0000 0.0000 -13409.8418 2118.7201 0.0000 0.0000 851.8400 -10439.2817 146.2523 -11291.1216 -10436.7088 150.3779 -1067.5561 -1038.0779 28919.5911 4.1030 4.0761
TCL: Running 100000 steps at 180 kelvin.
TCL: Setting parameter langevinTemp to 180
TCL: Running for 100000 steps
ETITLE: TS BOND ANGLE DIHED IMPRP ELECT VDW BOUNDARY MISC KINETIC TOTAL TEMP POTENTIAL TOTAL3 TEMPAVG PRESSURE GPRESSURE VOLUME PRESSAVG GPRESSAVG
ENERGY: 500000 0.0000 0.0000 0.0000 0.0000 -13409.8418 2118.7201 0.0000 0.0000 851.3787 -10439.7430 146.1731 -11291.1216 -10437.7582 146.1731 -1089.2252 -1037.5020 28919.5911 -1089.2252 -1037.5020
ENERGY: 600000 0.0000 0.0000 0.0000 0.0000 -13224.6965 2232.1107 0.0000 0.0000 1027.8179 -9964.7679 176.4659 -10992.5858 -9962.9362 179.8696 899.1286 950.9788 28737.8253 3.8399 3.8156
TCL: Running 100000 steps at 210 kelvin.
TCL: Setting parameter langevinTemp to 210
TCL: Running for 100000 steps
ETITLE: TS BOND ANGLE DIHED IMPRP ELECT VDW BOUNDARY MISC KINETIC TOTAL TEMP POTENTIAL TOTAL3 TEMPAVG PRESSURE GPRESSURE VOLUME PRESSAVG GPRESSAVG
ENERGY: 600000 0.0000 0.0000 0.0000 0.0000 -13224.6965 2232.1107 0.0000 0.0000 1027.2990 -9965.2868 176.3768 -10992.5858 -9963.8003 176.3768 900.8511 950.9231 28737.8253 900.8511 950.9231
ENERGY: 700000 0.0000 0.0000 0.0000 0.0000 -12260.9090 1805.0579 0.0000 0.0000 1225.0561 -9230.7950 210.3297 -10455.8511 -9227.7774 210.2327 -311.9105 -227.0081 28427.8004 4.0217 3.8423
TCL: Running 100000 steps at 240 kelvin.
TCL: Setting parameter langevinTemp to 240
TCL: Running for 100000 steps
ETITLE: TS BOND ANGLE DIHED IMPRP ELECT VDW BOUNDARY MISC KINETIC TOTAL TEMP POTENTIAL TOTAL3 TEMPAVG PRESSURE GPRESSURE VOLUME PRESSAVG GPRESSAVG
ENERGY: 700000 0.0000 0.0000 0.0000 0.0000 -12260.9090 1805.0579 0.0000 0.0000 1224.4366 -9231.4145 210.2233 -10455.8511 -9228.9509 210.2233 -303.8705 -228.1846 28427.8004 -303.8705 -228.1846
ENERGY: 800000 0.0000 0.0000 0.0000 0.0000 -11736.0148 1717.8710 0.0000 0.0000 1372.0877 -8646.0560 235.5735 -10018.1437 -8643.0855 240.1341 227.2707 328.7600 29019.4805 4.2944 4.0978
TCL: Running 100000 steps at 270 kelvin.
TCL: Setting parameter langevinTemp to 270
TCL: Running for 100000 steps
ETITLE: TS BOND ANGLE DIHED IMPRP ELECT VDW BOUNDARY MISC KINETIC TOTAL TEMP POTENTIAL TOTAL3 TEMPAVG PRESSURE GPRESSURE VOLUME PRESSAVG GPRESSAVG
ENERGY: 800000 0.0000 0.0000 0.0000 0.0000 -11736.0148 1717.8710 0.0000 0.0000 1371.3997 -8646.7440 235.4554 -10018.1437 -8645.0990 235.4554 257.4772 329.5837 29019.4805 257.4772 329.5837
ENERGY: 900000 0.0000 0.0000 0.0000 0.0000 -11295.2248 1619.2369 0.0000 0.0000 1601.9670 -8074.0210 275.0414 -9675.9880 -8071.1151 270.1184 427.5261 526.7929 29702.5820 2.1567 1.8736
TCL: Running 1000000 steps at 300 kelvin.
TCL: Setting parameter langevinTemp to 300
TCL: Running for 1000000 steps
ETITLE: TS BOND ANGLE DIHED IMPRP ELECT VDW BOUNDARY MISC KINETIC TOTAL TEMP POTENTIAL TOTAL3 TEMPAVG PRESSURE GPRESSURE VOLUME PRESSAVG GPRESSAVG
ENERGY: 900000 0.0000 0.0000 0.0000 0.0000 -11295.2248 1619.2369 0.0000 0.0000 1601.1736 -8074.8144 274.9052 -9675.9880 -8073.1600 274.9052 440.9532 527.7388 29702.5820 440.9532 527.7388
ENERGY: 1100000 0.0000 0.0000 0.0000 0.0000 -10670.1384 1431.3255 0.0000 0.0000 1716.8350 -7521.9779 294.7631 -9238.8129 -7521.6448 300.5103 -99.0207 -23.2935 30620.2471 3.6730 3.5352
ENERGY: 1300000 0.0000 0.0000 0.0000 0.0000 -10791.5863 1540.2087 0.0000 0.0000 1762.4801 -7488.8975 302.5999 -9251.3776 -7485.4297 300.5908 784.7178 910.8877 30353.8077 4.6268 4.3469
ENERGY: 1500000 0.0000 0.0000 0.0000 0.0000 -10655.3248 1473.7693 0.0000 0.0000 1713.2392 -7468.3163 294.1457 -9181.5555 -7462.4101 300.6737 445.2237 529.8465 30315.1434 3.8174 3.9936
ENERGY: 1700000 0.0000 0.0000 0.0000 0.0000 -10532.0740 1333.0906 0.0000 0.0000 1747.5919 -7451.3915 300.0437 -9198.9834 -7444.6119 299.5927 -770.6937 -709.0976 30707.9672 3.2234 3.1503
ENERGY: 1900000 0.0000 0.0000 0.0000 0.0000 -10625.5981 1412.9263 0.0000 0.0000 1786.3893 -7426.2825 306.7049 -9212.6718 -7422.6456 299.9950 14.3003 82.0596 30529.9282 3.2427 3.0000
TCL: Exiting due to exit command.
