Info: SIMULATION PARAMETERS:
Info: TIMESTEP               2
Info: NUMBER OF STEPS        0
Info: STEPS PER CYCLE        10
Info: PERIODIC CELL BASIS 1  37.133 0 0
Info: PERIODIC CELL BASIS 2  0 36.762 0
Info: PERIODIC CELL BASIS 3  0 0 31.349
Info: PERIODIC CELL CENTER   0 0 0
Info: WRAPPING WATERS AROUND PERIODIC BOUNDARIES ON OUTPUT.
Info: WRAPPING ALL CLUSTERS AROUND PERIODIC BOUNDARIES ON OUTPUT.
Info: FIRST LDB TIMESTEP     50
Info: LAST LDB TIMESTEP     -1
Info: HOM BACKGROUND SCALING 1
Info: PME BACKGROUND SCALING 1
Info: MIN ATOMS PER PATCH    40
Info: EMPTY PATCH LOAD       40 ATOMS
Info: INITIAL TEMPERATURE    300
Info: CENTER OF MASS MOVING INITIALLY? NO
Info: DIELECTRIC             1
Info: EXCLUDE                SCALED ONE-FOUR
Info: 1-4 ELECTROSTATICS SCALED BY 0.833333
Info: MODIFIED 1-4 VDW PARAMETERS WILL BE USED
Info: DCD FILENAME           mobley_2681549_equil.dcd
Info: DCD FREQUENCY          100000
Info: DCD FIRST STEP         100000
Info: DCD FILE WILL CONTAIN UNIT CELL DATA
Info: XST FILENAME           mobley_2681549_equil.xst
Info: XST FREQUENCY          100000
Info: NO VELOCITY DCD OUTPUT
Info: NO FORCE DCD OUTPUT
Info: OUTPUT FILENAME        mobley_2681549_equil
Info: BINARY OUTPUT FILES WILL BE USED
Info: RESTART FILENAME       mobley_2681549_equil.restart
Info: RESTART FREQUENCY      100000
Info: BINARY RESTART FILES WILL BE USED
Info: CUTOFF                 9
Info: PAIRLIST DISTANCE      11
Info: PAIRLIST SHRINK RATE   0.01
Info: PAIRLIST GROW RATE     0.01
Info: PAIRLIST TRIGGER       0.3
Info: PAIRLISTS PER CYCLE    2
Info: PAIRLISTS ENABLED
Info: MARGIN                 8
Info: HYDROGEN GROUP CUTOFF  2.5
Info: PATCH DIMENSION        21.5
Info: ENERGY OUTPUT STEPS    100000
Info: ENERGY EVALUATION STEPS    100000
Info: OUTPUT ENERGY PRECISION 4
Info: CROSSTERM ENERGY INCLUDED IN DIHEDRAL
Info: TIMING OUTPUT STEPS    1000000
Info: PRESSURE OUTPUT STEPS  100000
Info: FIXED ATOMS ACTIVE
Info: LANGEVIN DYNAMICS ACTIVE
Info: LANGEVIN TEMPERATURE   30
Info: LANGEVIN USING BBK INTEGRATOR
Info: LANGEVIN DAMPING COEFFICIENT IS 1 INVERSE PS
Info: LANGEVIN DYNAMICS APPLIED TO HYDROGENS
Info: LANGEVIN PISTON PRESSURE CONTROL ACTIVE
Info:        TARGET PRESSURE IS 1.01325 BAR
Info:     OSCILLATION PERIOD IS 50 FS
Info:             DECAY TIME IS 25 FS
Info:     PISTON TEMPERATURE IS 300 K
Info:       PRESSURE CONTROL IS GROUP-BASED
Info:    INITIAL STRAIN RATE IS 0 0 0
Info:       CELL FLUCTUATION IS ISOTROPIC
Info: PARTICLE MESH EWALD (PME) ACTIVE
Info: PME TOLERANCE               1e-06
Info: PME EWALD COEFFICIENT       0.348832
Info: PME INTERPOLATION ORDER     4
Info: PME GRID DIMENSIONS         40 40 32
Info: PME MAXIMUM GRID SPACING    1
Info: FULL ELECTROSTATIC EVALUATION FREQUENCY      2
Info: USING VERLET I (r-RESPA) MTS SCHEME.
Info: C1 SPLITTING OF LONG RANGE ELECTROSTATICS
Info: PLACING ATOMS IN PATCHES BY HYDROGEN GROUPS
Info: RIGID BONDS TO HYDROGEN : ALL
Info:         ERROR TOLERANCE : 1e-08
Info:          MAX ITERATIONS : 100
Info: RIGID WATER USING SETTLE ALGORITHM
Info: RANDOM NUMBER SEED     1743684558
Info: USE HYDROGEN BONDS?    NO
Info: Using AMBER format force field!
Info: AMBER PARM FILE        mobley_2681549.prmtop
Info: COORDINATE PDB         mobley_2681549.pdb
Info: Exclusions will be read from PARM file!
Info: SCNB (VDW SCALING)     2
Info: USING ARITHMETIC MEAN TO COMBINE L-J SIGMA PARAMETERS
Info: BINARY COORDINATES     mobley_2681549_min.coor
Info: SUMMARY OF PARAMETERS:
Info: 5 BONDS
Info: 3 ANGLES
Info:   3 HARMONIC
Info:   0 COSINE-BASED
Info: 2 DIHEDRAL
Info: 0 IMPROPER
Info: 0 CROSSTERM
Info: 0 VDW
Info: 15 VDW_PAIRS
Info: 0 NBTHOLE_PAIRS
Info: STRUCTURE SUMMARY:
Info: 2904 ATOMS
Info: 2904 BONDS
Info: 18 ANGLES
Info: 30 DIHEDRALS
Info: 0 IMPROPERS
Info: 0 CROSSTERMS
Info: 2943 EXCLUSIONS
Info: 12 FIXED ATOMS
Info: 2895 RIGID BONDS
Info: 3 RIGID BONDS BETWEEN FIXED ATOMS
Info: 5784 DEGREES OF FREEDOM
Info: 973 HYDROGEN GROUPS
Info: 3 ATOMS IN LARGEST HYDROGEN GROUP
Info: 973 MIGRATION GROUPS
Info: 3 ATOMS IN LARGEST MIGRATION GROUP
Info: 9 HYDROGEN GROUPS WITH ALL ATOMS FIXED
Info: TOTAL MASS = 17548.9 amu
Info: TOTAL CHARGE = 0.000199992 e
Info: MASS DENSITY = 0.680966 g/cm^3
Info: ATOM DENSITY = 0.06786 atoms/A^3
Info: ADDED 0 IMPLICIT EXCLUSIONS
Info: NONBONDED TABLE R-SQUARED SPACING: 0.0625
Info: NONBONDED TABLE SIZE: 705 POINTS
Info: REMOVING COM VELOCITY -0.1476 -0.227026 -0.26016
TCL: Running for 100000 steps
ETITLE: TS BOND ANGLE DIHED IMPRP ELECT VDW BOUNDARY MISC KINETIC TOTAL TEMP POTENTIAL TOTAL3 TEMPAVG PRESSURE GPRESSURE VOLUME PRESSAVG GPRESSAVG
ENERGY: 0 0.0000 0.0000 0.0000 0.0000 -13442.0106 2336.3259 0.0000 0.0000 1733.7909 -9371.8938 301.6885 -11105.6847 -9371.5358 301.6885 143.3494 170.4145 42793.9978 143.3494 170.4145
ENERGY: 100000 0.0000 0.0000 0.0000 0.0000 -13937.1535 2389.2094 0.0000 0.0000 172.2928 -11375.6513 29.9798 -11547.9441 -11375.2166 30.8372 -453.6869 -407.7300 28688.7938 3.0405 3.1152
TCL: Running 100000 steps at 60 kelvin.
TCL: Setting parameter langevinTemp to 60
TCL: Running for 100000 steps
ETITLE: TS BOND ANGLE DIHED IMPRP ELECT VDW BOUNDARY MISC KINETIC TOTAL TEMP POTENTIAL TOTAL3 TEMPAVG PRESSURE GPRESSURE VOLUME PRESSAVG GPRESSAVG
ENERGY: 100000 0.0000 0.0000 0.0000 0.0000 -13937.1535 2389.2094 0.0000 0.0000 172.2057 -11375.7384 29.9647 -11547.9441 -11375.3920 29.9647 -454.7379 -407.7483 28688.7938 -454.7379 -407.7483
ENERGY: 200000 0.0000 0.0000 0.0000 0.0000 -13935.1112 2408.0848 0.0000 0.0000 351.6276 -11175.3988 61.1850 -11527.0264 -11174.8565 59.7510 -116.0312 -54.0926 28351.6457 4.6664 4.7126
TCL: Running 100000 steps at 90 kelvin.
TCL: Setting parameter langevinTemp to 90
TCL: Running for 100000 steps
ETITLE: TS BOND ANGLE DIHED IMPRP ELECT VDW BOUNDARY MISC KINETIC TOTAL TEMP POTENTIAL TOTAL3 TEMPAVG PRESSURE GPRESSURE VOLUME PRESSAVG GPRESSAVG
ENERGY: 200000 0.0000 0.0000 0.0000 0.0000 -13935.1112 2408.0848 0.0000 0.0000 351.4525 -11175.5739 61.1545 -11527.0264 -11174.8729 61.1545 -111.6428 -54.5672 28351.6457 -111.6428 -54.5672
ENERGY: 300000 0.0000 0.0000 0.0000 0.0000 -13861.0934 2450.5979 0.0000 0.0000 502.8525 -10907.6430 87.4989 -11410.4955 -10907.2151 90.0494 635.5481 693.0427 28390.8398 5.1821 5.2253
TCL: Running 100000 steps at 120 kelvin.
TCL: Setting parameter langevinTemp to 120
TCL: Running for 100000 steps
ETITLE: TS BOND ANGLE DIHED IMPRP ELECT VDW BOUNDARY MISC KINETIC TOTAL TEMP POTENTIAL TOTAL3 TEMPAVG PRESSURE GPRESSURE VOLUME PRESSAVG GPRESSAVG
ENERGY: 300000 0.0000 0.0000 0.0000 0.0000 -13861.0934 2450.5979 0.0000 0.0000 502.6064 -10907.8891 87.4561 -11410.4955 -10907.0060 87.4561 636.8859 692.7364 28390.8398 636.8859 692.7364
ENERGY: 400000 0.0000 0.0000 0.0000 0.0000 -13568.9010 2277.6888 0.0000 0.0000 688.5124 -10602.6999 119.8047 -11291.2122 -10601.1989 120.0001 -169.5516 -166.4906 28476.9735 4.0122 4.1848
TCL: Running 100000 steps at 150 kelvin.
TCL: Setting parameter langevinTemp to 150
TCL: Running for 100000 steps
ETITLE: TS BOND ANGLE DIHED IMPRP ELECT VDW BOUNDARY MISC KINETIC TOTAL TEMP POTENTIAL TOTAL3 TEMPAVG PRESSURE GPRESSURE VOLUME PRESSAVG GPRESSAVG
ENERGY: 400000 0.0000 0.0000 0.0000 0.0000 -13568.9010 2277.6888 0.0000 0.0000 688.1810 -10603.0312 119.7470 -11291.2122 -10601.7398 119.7470 -214.3900 -167.2125 28476.9735 -214.3900 -167.2125
ENERGY: 500000 0.0000 0.0000 0.0000 0.0000 -13348.7264 2190.0334 0.0000 0.0000 866.8816 -10291.8114 150.8419 -11158.6931 -10289.4651 150.1653 -430.0675 -396.7810 28622.5038 2.9369 2.8640
TCL: Running 100000 steps at 180 kelvin.
TCL: Setting parameter langevinTemp to 180
TCL: Running for 100000 steps
ETITLE: TS BOND ANGLE DIHED IMPRP ELECT VDW BOUNDARY MISC KINETIC TOTAL TEMP POTENTIAL TOTAL3 TEMPAVG PRESSURE GPRESSURE VOLUME PRESSAVG GPRESSAVG
ENERGY: 500000 0.0000 0.0000 0.0000 0.0000 -13348.7264 2190.0334 0.0000 0.0000 866.4517 -10292.2413 150.7671 -11158.6931 -10290.0581 150.7671 -437.0904 -396.0016 28622.5038 -437.0904 -396.0016
ENERGY: 600000 0.0000 0.0000 0.0000 0.0000 -12981.2716 2099.0169 0.0000 0.0000 1046.7352 -9835.5195 182.1373 -10882.2547 -9831.3319 180.1442 172.6950 193.8097 28264.0638 4.6762 4.5655
TCL: Running 100000 steps at 210 kelvin.
TCL: Setting parameter langevinTemp to 210
TCL: Running for 100000 steps
ETITLE: TS BOND ANGLE DIHED IMPRP ELECT VDW BOUNDARY MISC KINETIC TOTAL TEMP POTENTIAL TOTAL3 TEMPAVG PRESSURE GPRESSURE VOLUME PRESSAVG GPRESSAVG
ENERGY: 600000 0.0000 0.0000 0.0000 0.0000 -12981.2716 2099.0169 0.0000 0.0000 1046.2048 -9836.0499 182.0450 -10882.2547 -9833.6133 182.0450 123.6948 194.3804 28264.0638 123.6948 194.3804
ENERGY: 700000 0.0000 0.0000 0.0000 0.0000 -12094.6000 1806.3405 0.0000 0.0000 1203.9081 -9084.3515 209.4862 -10288.2595 -9080.5616 209.9672 39.7603 108.7471 28114.2344 2.6406 2.5922
TCL: Running 100000 steps at 240 kelvin.
TCL: Setting parameter langevinTemp to 240
TCL: Running for 100000 steps
ETITLE: TS BOND ANGLE DIHED IMPRP ELECT VDW BOUNDARY MISC KINETIC TOTAL TEMP POTENTIAL TOTAL3 TEMPAVG PRESSURE GPRESSURE VOLUME PRESSAVG GPRESSAVG
ENERGY: 700000 0.0000 0.0000 0.0000 0.0000 -12094.6000 1806.3405 0.0000 0.0000 1203.2900 -9084.9695 209.3787 -10288.2595 -9083.1561 209.3787 28.3224 110.9910 28114.2344 28.3224 110.9910
ENERGY: 800000 0.0000 0.0000 0.0000 0.0000 -11573.5202 1687.0548 0.0000 0.0000 1394.0202 -8492.4453 242.5667 -9886.4655 -8489.8787 240.3212 234.5792 332.8269 28525.7419 2.5890 2.6188
TCL: Running 100000 steps at 270 kelvin.
TCL: Setting parameter langevinTemp to 270
TCL: Running for 100000 steps
ETITLE: TS BOND ANGLE DIHED IMPRP ELECT VDW BOUNDARY MISC KINETIC TOTAL TEMP POTENTIAL TOTAL3 TEMPAVG PRESSURE GPRESSURE VOLUME PRESSAVG GPRESSAVG
ENERGY: 800000 0.0000 0.0000 0.0000 0.0000 -11573.5202 1687.0548 0.0000 0.0000 1393.3326 -8493.1329 242.4470 -9886.4655 -8489.8997 242.4470 237.9510 331.5388 28525.7419 237.9510 331.5388
ENERGY: 900000 0.0000 0.0000 0.0000 0.0000 -11193.9124 1625.2832 0.0000 0.0000 1553.6826 -8014.9465 270.3488 -9568.6291 -8011.2026 270.3316 897.8788 970.8375 28447.1555 3.3491 3.3298
TCL: Running 1000000 steps at 300 kelvin.
TCL: Setting parameter langevinTemp to 300
TCL: Running for 1000000 steps
ETITLE: TS BOND ANGLE DIHED IMPRP ELECT VDW BOUNDARY MISC KINETIC TOTAL TEMP POTENTIAL TOTAL3 TEMPAVG PRESSURE GPRESSURE VOLUME PRESSAVG GPRESSAVG
ENERGY: 900000 0.0000 0.0000 0.0000 0.0000 -11193.9124 1625.2832 0.0000 0.0000 1552.8968 -8015.7323 270.2120 -9568.6291 -8014.0672 270.2120 895.5349 972.7351 28447.1555 895.5349 972.7351
ENERGY: 1100000 0.0000 0.0000 0.0000 0.0000 -10581.4694 1465.8670 0.0000 0.0000 1753.9446 -7361.6578 305.1954 -9115.6024 -7359.2134 300.0168 465.3898 472.5308 30111.5944 3.2392 3.1287
ENERGY: 1300000 0.0000 0.0000 0.0000 0.0000 -10573.8729 1433.2708 0.0000 0.0000 1676.4192 -7464.1830 291.7056 -9140.6022 -7461.7933 299.7162 248.0373 335.9978 29527.6754 3.8851 3.8352
ENERGY: 1500000 0.0000 0.0000 0.0000 0.0000 -10624.1705 1518.2853 0.0000 0.0000 1697.3360 -7408.5492 295.3452 -9105.8852 -7406.2199 300.6523 995.5089 1093.8869 29773.1267 2.8714 2.8553
ENERGY: 1700000 0.0000 0.0000 0.0000 0.0000 -10563.9112 1443.1764 0.0000 0.0000 1787.8089 -7332.9259 311.0880 -9120.7348 -7331.1282 300.3716 435.9744 489.9262 29883.1939 2.5634 2.4718
ENERGY: 1900000 0.0000 0.0000 0.0000 0.0000 -10718.1866 1556.1014 0.0000 0.0000 1712.5076 -7449.5776 297.9851 -9162.0852 -7446.8358 299.8390 1229.5432 1320.0936 29548.5374 2.7445 2.6421
TCL: Exiting due to exit command.
