Info: SIMULATION PARAMETERS:
Info: TIMESTEP               2
Info: NUMBER OF STEPS        0
Info: STEPS PER CYCLE        10
Info: PERIODIC CELL BASIS 1  36.592 0 0
Info: PERIODIC CELL BASIS 2  0 34.26 0
Info: PERIODIC CELL BASIS 3  0 0 34.954
Info: PERIODIC CELL CENTER   0 0 0
Info: WRAPPING WATERS AROUND PERIODIC BOUNDARIES ON OUTPUT.
Info: WRAPPING ALL CLUSTERS AROUND PERIODIC BOUNDARIES ON OUTPUT.
Info: FIRST LDB TIMESTEP     50
Info: LAST LDB TIMESTEP     -1
Info: HOM BACKGROUND SCALING 1
Info: PME BACKGROUND SCALING 1
Info: MIN ATOMS PER PATCH    40
Info: EMPTY PATCH LOAD       40 ATOMS
Info: INITIAL TEMPERATURE    300
Info: CENTER OF MASS MOVING INITIALLY? NO
Info: DIELECTRIC             1
Info: EXCLUDE                SCALED ONE-FOUR
Info: 1-4 ELECTROSTATICS SCALED BY 0.833333
Info: MODIFIED 1-4 VDW PARAMETERS WILL BE USED
Info: DCD FILENAME           mobley_7532833_equil.dcd
Info: DCD FREQUENCY          100000
Info: DCD FIRST STEP         100000
Info: DCD FILE WILL CONTAIN UNIT CELL DATA
Info: XST FILENAME           mobley_7532833_equil.xst
Info: XST FREQUENCY          100000
Info: NO VELOCITY DCD OUTPUT
Info: NO FORCE DCD OUTPUT
Info: OUTPUT FILENAME        mobley_7532833_equil
Info: BINARY OUTPUT FILES WILL BE USED
Info: RESTART FILENAME       mobley_7532833_equil.restart
Info: RESTART FREQUENCY      100000
Info: BINARY RESTART FILES WILL BE USED
Info: CUTOFF                 9
Info: PAIRLIST DISTANCE      11
Info: PAIRLIST SHRINK RATE   0.01
Info: PAIRLIST GROW RATE     0.01
Info: PAIRLIST TRIGGER       0.3
Info: PAIRLISTS PER CYCLE    2
Info: PAIRLISTS ENABLED
Info: MARGIN                 8
Info: HYDROGEN GROUP CUTOFF  2.5
Info: PATCH DIMENSION        21.5
Info: ENERGY OUTPUT STEPS    100000
Info: ENERGY EVALUATION STEPS    100000
Info: OUTPUT ENERGY PRECISION 4
Info: CROSSTERM ENERGY INCLUDED IN DIHEDRAL
Info: TIMING OUTPUT STEPS    1000000
Info: PRESSURE OUTPUT STEPS  100000
Info: FIXED ATOMS ACTIVE
Info: LANGEVIN DYNAMICS ACTIVE
Info: LANGEVIN TEMPERATURE   30
Info: LANGEVIN USING BBK INTEGRATOR
Info: LANGEVIN DAMPING COEFFICIENT IS 1 INVERSE PS
Info: LANGEVIN DYNAMICS APPLIED TO HYDROGENS
Info: LANGEVIN PISTON PRESSURE CONTROL ACTIVE
Info:        TARGET PRESSURE IS 1.01325 BAR
Info:     OSCILLATION PERIOD IS 50 FS
Info:             DECAY TIME IS 25 FS
Info:     PISTON TEMPERATURE IS 300 K
Info:       PRESSURE CONTROL IS GROUP-BASED
Info:    INITIAL STRAIN RATE IS 0 0 0
Info:       CELL FLUCTUATION IS ISOTROPIC
Info: PARTICLE MESH EWALD (PME) ACTIVE
Info: PME TOLERANCE               1e-06
Info: PME EWALD COEFFICIENT       0.348832
Info: PME INTERPOLATION ORDER     4
Info: PME GRID DIMENSIONS         40 36 36
Info: PME MAXIMUM GRID SPACING    1
Info: FULL ELECTROSTATIC EVALUATION FREQUENCY      2
Info: USING VERLET I (r-RESPA) MTS SCHEME.
Info: C1 SPLITTING OF LONG RANGE ELECTROSTATICS
Info: PLACING ATOMS IN PATCHES BY HYDROGEN GROUPS
Info: RIGID BONDS TO HYDROGEN : ALL
Info:         ERROR TOLERANCE : 1e-08
Info:          MAX ITERATIONS : 100
Info: RIGID WATER USING SETTLE ALGORITHM
Info: RANDOM NUMBER SEED     1743679650
Info: USE HYDROGEN BONDS?    NO
Info: Using AMBER format force field!
Info: AMBER PARM FILE        mobley_7532833.prmtop
Info: COORDINATE PDB         mobley_7532833.pdb
Info: Exclusions will be read from PARM file!
Info: SCNB (VDW SCALING)     2
Info: USING ARITHMETIC MEAN TO COMBINE L-J SIGMA PARAMETERS
Info: BINARY COORDINATES     mobley_7532833_min.coor
Info: SUMMARY OF PARAMETERS:
Info: 5 BONDS
Info: 3 ANGLES
Info:   3 HARMONIC
Info:   0 COSINE-BASED
Info: 1 DIHEDRAL
Info: 0 IMPROPER
Info: 0 CROSSTERM
Info: 0 VDW
Info: 21 VDW_PAIRS
Info: 0 NBTHOLE_PAIRS
Info: STRUCTURE SUMMARY:
Info: 2952 ATOMS
Info: 2951 BONDS
Info: 7 ANGLES
Info: 3 DIHEDRALS
Info: 0 IMPROPERS
Info: 0 CROSSTERMS
Info: 2961 EXCLUSIONS
Info: 6 FIXED ATOMS
Info: 2949 RIGID BONDS
Info: 3 RIGID BONDS BETWEEN FIXED ATOMS
Info: 5892 DEGREES OF FREEDOM
Info: 985 HYDROGEN GROUPS
Info: 4 ATOMS IN LARGEST HYDROGEN GROUP
Info: 985 MIGRATION GROUPS
Info: 4 ATOMS IN LARGEST MIGRATION GROUP
Info: 3 HYDROGEN GROUPS WITH ALL ATOMS FIXED
Info: TOTAL MASS = 17732.8 amu
Info: TOTAL CHARGE = 0.000100002 e
Info: MASS DENSITY = 0.671994 g/cm^3
Info: ATOM DENSITY = 0.0673668 atoms/A^3
Info: ADDED 0 IMPLICIT EXCLUSIONS
Info: NONBONDED TABLE R-SQUARED SPACING: 0.0625
Info: NONBONDED TABLE SIZE: 705 POINTS
Info: REMOVING COM VELOCITY -0.117638 -0.0997301 0.138917
TCL: Running for 100000 steps
ETITLE: TS BOND ANGLE DIHED IMPRP ELECT VDW BOUNDARY MISC KINETIC TOTAL TEMP POTENTIAL TOTAL3 TEMPAVG PRESSURE GPRESSURE VOLUME PRESSAVG GPRESSAVG
ENERGY: 0 0.0000 0.0000 0.0000 0.0000 -13649.6138 2358.4174 0.0000 0.0000 1728.2985 -9562.8978 295.2204 -11291.1963 -9562.5529 295.2204 115.8830 138.9969 43819.7997 115.8830 138.9969
ENERGY: 100000 0.0000 0.0000 0.0000 0.0000 -14250.2093 2459.2981 0.0000 0.0000 174.2716 -11616.6396 29.7683 -11790.9112 -11616.2324 30.8740 -211.2713 -157.3212 29096.7514 4.7251 4.7197
TCL: Running 100000 steps at 60 kelvin.
TCL: Setting parameter langevinTemp to 60
TCL: Running for 100000 steps
ETITLE: TS BOND ANGLE DIHED IMPRP ELECT VDW BOUNDARY MISC KINETIC TOTAL TEMP POTENTIAL TOTAL3 TEMPAVG PRESSURE GPRESSURE VOLUME PRESSAVG GPRESSAVG
ENERGY: 100000 0.0000 0.0000 0.0000 0.0000 -14250.2093 2459.2981 0.0000 0.0000 174.1846 -11616.7266 29.7535 -11790.9112 -11616.3267 29.7535 -212.4219 -157.2060 29096.7514 -212.4219 -157.2060
ENERGY: 200000 0.0000 0.0000 0.0000 0.0000 -14204.1060 2473.2287 0.0000 0.0000 354.6310 -11376.2463 60.5765 -11730.8773 -11375.3217 59.8769 224.3586 251.8576 28874.7946 4.3544 4.3884
TCL: Running 100000 steps at 90 kelvin.
TCL: Setting parameter langevinTemp to 90
TCL: Running for 100000 steps
ETITLE: TS BOND ANGLE DIHED IMPRP ELECT VDW BOUNDARY MISC KINETIC TOTAL TEMP POTENTIAL TOTAL3 TEMPAVG PRESSURE GPRESSURE VOLUME PRESSAVG GPRESSAVG
ENERGY: 200000 0.0000 0.0000 0.0000 0.0000 -14204.1060 2473.2287 0.0000 0.0000 354.4535 -11376.4238 60.5462 -11730.8773 -11375.6627 60.5462 197.6513 251.9606 28874.7946 197.6513 251.9606
ENERGY: 300000 0.0000 0.0000 0.0000 0.0000 -13990.5874 2369.3982 0.0000 0.0000 537.3768 -11083.8124 91.7924 -11621.1892 -11082.3292 90.0442 -64.0631 -34.5152 28862.5629 4.2974 4.2710
TCL: Running 100000 steps at 120 kelvin.
TCL: Setting parameter langevinTemp to 120
TCL: Running for 100000 steps
ETITLE: TS BOND ANGLE DIHED IMPRP ELECT VDW BOUNDARY MISC KINETIC TOTAL TEMP POTENTIAL TOTAL3 TEMPAVG PRESSURE GPRESSURE VOLUME PRESSAVG GPRESSAVG
ENERGY: 300000 0.0000 0.0000 0.0000 0.0000 -13990.5874 2369.3982 0.0000 0.0000 537.1183 -11084.0708 91.7482 -11621.1892 -11082.8838 91.7482 -74.6847 -34.4086 28862.5629 -74.6847 -34.4086
ENERGY: 400000 0.0000 0.0000 0.0000 0.0000 -13809.2143 2329.2917 0.0000 0.0000 705.2325 -10774.6901 120.4648 -11479.9226 -10772.5005 119.7142 5.8305 66.8039 28881.0460 3.8117 3.9721
TCL: Running 100000 steps at 150 kelvin.
TCL: Setting parameter langevinTemp to 150
TCL: Running for 100000 steps
ETITLE: TS BOND ANGLE DIHED IMPRP ELECT VDW BOUNDARY MISC KINETIC TOTAL TEMP POTENTIAL TOTAL3 TEMPAVG PRESSURE GPRESSURE VOLUME PRESSAVG GPRESSAVG
ENERGY: 400000 0.0000 0.0000 0.0000 0.0000 -13809.2143 2329.2917 0.0000 0.0000 704.8870 -10775.0356 120.4057 -11479.9226 -10773.6982 120.4057 6.7756 67.5349 28881.0460 6.7756 67.5349
ENERGY: 500000 0.0000 0.0000 0.0000 0.0000 -13536.1080 2231.1150 0.0000 0.0000 883.5081 -10421.4848 150.9170 -11304.9929 -10418.9415 149.9552 -272.0647 -177.8361 29095.0955 3.6381 3.6494
TCL: Running 100000 steps at 180 kelvin.
TCL: Setting parameter langevinTemp to 180
TCL: Running for 100000 steps
ETITLE: TS BOND ANGLE DIHED IMPRP ELECT VDW BOUNDARY MISC KINETIC TOTAL TEMP POTENTIAL TOTAL3 TEMPAVG PRESSURE GPRESSURE VOLUME PRESSAVG GPRESSAVG
ENERGY: 500000 0.0000 0.0000 0.0000 0.0000 -13536.1080 2231.1150 0.0000 0.0000 883.0623 -10421.9306 150.8409 -11304.9929 -10419.7583 150.8409 -238.4817 -178.0044 29095.0955 -238.4817 -178.0044
ENERGY: 600000 0.0000 0.0000 0.0000 0.0000 -13232.3415 2163.4188 0.0000 0.0000 1054.9656 -10013.9571 180.2046 -11068.9227 -10010.5372 180.1718 175.0659 219.3115 28912.2884 3.3789 3.4716
TCL: Running 100000 steps at 210 kelvin.
TCL: Setting parameter langevinTemp to 210
TCL: Running for 100000 steps
ETITLE: TS BOND ANGLE DIHED IMPRP ELECT VDW BOUNDARY MISC KINETIC TOTAL TEMP POTENTIAL TOTAL3 TEMPAVG PRESSURE GPRESSURE VOLUME PRESSAVG GPRESSAVG
ENERGY: 600000 0.0000 0.0000 0.0000 0.0000 -13232.3415 2163.4188 0.0000 0.0000 1054.4483 -10014.4743 180.1163 -11068.9227 -10012.5630 180.1163 149.9694 220.8994 28912.2884 149.9694 220.8994
ENERGY: 700000 0.0000 0.0000 0.0000 0.0000 -12617.6833 2009.3563 0.0000 0.0000 1234.3591 -9373.9679 210.8478 -10608.3270 -9371.8496 209.9762 628.5928 704.8113 28767.1489 4.8186 4.8341
TCL: Running 100000 steps at 240 kelvin.
TCL: Setting parameter langevinTemp to 240
TCL: Running for 100000 steps
ETITLE: TS BOND ANGLE DIHED IMPRP ELECT VDW BOUNDARY MISC KINETIC TOTAL TEMP POTENTIAL TOTAL3 TEMPAVG PRESSURE GPRESSURE VOLUME PRESSAVG GPRESSAVG
ENERGY: 700000 0.0000 0.0000 0.0000 0.0000 -12617.6833 2009.3563 0.0000 0.0000 1233.7545 -9374.5725 210.7446 -10608.3270 -9372.6564 210.7446 626.4198 704.7881 28767.1489 626.4198 704.7881
ENERGY: 800000 0.0000 0.0000 0.0000 0.0000 -11929.3191 1745.9805 0.0000 0.0000 1350.4615 -8832.8771 230.6799 -10183.3386 -8830.9437 239.4918 -146.9074 -64.4124 29142.7347 2.5195 2.5312
TCL: Running 100000 steps at 270 kelvin.
TCL: Setting parameter langevinTemp to 270
TCL: Running for 100000 steps
ETITLE: TS BOND ANGLE DIHED IMPRP ELECT VDW BOUNDARY MISC KINETIC TOTAL TEMP POTENTIAL TOTAL3 TEMPAVG PRESSURE GPRESSURE VOLUME PRESSAVG GPRESSAVG
ENERGY: 800000 0.0000 0.0000 0.0000 0.0000 -11929.3191 1745.9805 0.0000 0.0000 1349.7426 -8833.5959 230.5572 -10183.3386 -8831.1949 230.5572 -155.7969 -63.9888 29142.7347 -155.7969 -63.9888
ENERGY: 900000 0.0000 0.0000 0.0000 0.0000 -11259.4680 1525.0733 0.0000 0.0000 1584.5149 -8149.8798 270.6599 -9734.3947 -8146.4138 270.6764 -416.4456 -329.0227 29505.7964 2.1904 2.1053
TCL: Running 1000000 steps at 300 kelvin.
TCL: Setting parameter langevinTemp to 300
TCL: Running for 1000000 steps
ETITLE: TS BOND ANGLE DIHED IMPRP ELECT VDW BOUNDARY MISC KINETIC TOTAL TEMP POTENTIAL TOTAL3 TEMPAVG PRESSURE GPRESSURE VOLUME PRESSAVG GPRESSAVG
ENERGY: 900000 0.0000 0.0000 0.0000 0.0000 -11259.4680 1525.0733 0.0000 0.0000 1583.7198 -8150.6749 270.5241 -9734.3947 -8147.8415 270.5241 -424.1338 -328.8512 29505.7964 -424.1338 -328.8512
ENERGY: 1100000 0.0000 0.0000 0.0000 0.0000 -10717.3840 1440.5701 0.0000 0.0000 1742.3814 -7534.4325 297.6260 -9276.8139 -7529.3175 300.0674 -50.8589 4.3168 30628.7181 2.7097 2.6232
ENERGY: 1300000 0.0000 0.0000 0.0000 0.0000 -10633.2616 1316.6339 0.0000 0.0000 1786.9560 -7529.6717 305.2400 -9316.6277 -7527.7388 300.5833 -1169.2801 -1086.2195 30907.4586 3.3818 3.3300
ENERGY: 1500000 0.0000 0.0000 0.0000 0.0000 -10660.4235 1331.8480 0.0000 0.0000 1754.0201 -7574.5554 299.6141 -9328.5755 -7569.0037 299.8982 -986.5922 -870.8993 30225.1810 3.5982 3.4757
ENERGY: 1700000 0.0000 0.0000 0.0000 0.0000 -10797.5681 1490.3298 0.0000 0.0000 1791.3067 -7515.9316 305.9832 -9307.2383 -7514.1723 300.4346 395.6518 482.6087 30186.9132 2.4244 2.5452
ENERGY: 1900000 0.0000 0.0000 0.0000 0.0000 -10599.2757 1400.3373 0.0000 0.0000 1750.6879 -7448.2505 299.0449 -9198.9385 -7444.2709 300.5132 212.0224 287.8488 30007.0574 3.4022 3.2387
TCL: Exiting due to exit command.
