Info: SIMULATION PARAMETERS:
Info: TIMESTEP               2
Info: NUMBER OF STEPS        0
Info: STEPS PER CYCLE        10
Info: PERIODIC CELL BASIS 1  37.968 0 0
Info: PERIODIC CELL BASIS 2  0 36.032 0
Info: PERIODIC CELL BASIS 3  0 0 31.349
Info: PERIODIC CELL CENTER   0 0 0
Info: WRAPPING WATERS AROUND PERIODIC BOUNDARIES ON OUTPUT.
Info: WRAPPING ALL CLUSTERS AROUND PERIODIC BOUNDARIES ON OUTPUT.
Info: FIRST LDB TIMESTEP     50
Info: LAST LDB TIMESTEP     -1
Info: HOM BACKGROUND SCALING 1
Info: PME BACKGROUND SCALING 1
Info: MIN ATOMS PER PATCH    40
Info: EMPTY PATCH LOAD       40 ATOMS
Info: INITIAL TEMPERATURE    300
Info: CENTER OF MASS MOVING INITIALLY? NO
Info: DIELECTRIC             1
Info: EXCLUDE                SCALED ONE-FOUR
Info: 1-4 ELECTROSTATICS SCALED BY 0.833333
Info: MODIFIED 1-4 VDW PARAMETERS WILL BE USED
Info: DCD FILENAME           mobley_3843583_equil.dcd
Info: DCD FREQUENCY          100000
Info: DCD FIRST STEP         100000
Info: DCD FILE WILL CONTAIN UNIT CELL DATA
Info: XST FILENAME           mobley_3843583_equil.xst
Info: XST FREQUENCY          100000
Info: NO VELOCITY DCD OUTPUT
Info: NO FORCE DCD OUTPUT
Info: OUTPUT FILENAME        mobley_3843583_equil
Info: BINARY OUTPUT FILES WILL BE USED
Info: RESTART FILENAME       mobley_3843583_equil.restart
Info: RESTART FREQUENCY      100000
Info: BINARY RESTART FILES WILL BE USED
Info: CUTOFF                 9
Info: PAIRLIST DISTANCE      11
Info: PAIRLIST SHRINK RATE   0.01
Info: PAIRLIST GROW RATE     0.01
Info: PAIRLIST TRIGGER       0.3
Info: PAIRLISTS PER CYCLE    2
Info: PAIRLISTS ENABLED
Info: MARGIN                 8
Info: HYDROGEN GROUP CUTOFF  2.5
Info: PATCH DIMENSION        21.5
Info: ENERGY OUTPUT STEPS    100000
Info: ENERGY EVALUATION STEPS    100000
Info: OUTPUT ENERGY PRECISION 4
Info: CROSSTERM ENERGY INCLUDED IN DIHEDRAL
Info: TIMING OUTPUT STEPS    1000000
Info: PRESSURE OUTPUT STEPS  100000
Info: FIXED ATOMS ACTIVE
Info: LANGEVIN DYNAMICS ACTIVE
Info: LANGEVIN TEMPERATURE   30
Info: LANGEVIN USING BBK INTEGRATOR
Info: LANGEVIN DAMPING COEFFICIENT IS 1 INVERSE PS
Info: LANGEVIN DYNAMICS APPLIED TO HYDROGENS
Info: LANGEVIN PISTON PRESSURE CONTROL ACTIVE
Info:        TARGET PRESSURE IS 1.01325 BAR
Info:     OSCILLATION PERIOD IS 50 FS
Info:             DECAY TIME IS 25 FS
Info:     PISTON TEMPERATURE IS 300 K
Info:       PRESSURE CONTROL IS GROUP-BASED
Info:    INITIAL STRAIN RATE IS 0 0 0
Info:       CELL FLUCTUATION IS ISOTROPIC
Info: PARTICLE MESH EWALD (PME) ACTIVE
Info: PME TOLERANCE               1e-06
Info: PME EWALD COEFFICIENT       0.348832
Info: PME INTERPOLATION ORDER     4
Info: PME GRID DIMENSIONS         40 40 32
Info: PME MAXIMUM GRID SPACING    1
Info: FULL ELECTROSTATIC EVALUATION FREQUENCY      2
Info: USING VERLET I (r-RESPA) MTS SCHEME.
Info: C1 SPLITTING OF LONG RANGE ELECTROSTATICS
Info: PLACING ATOMS IN PATCHES BY HYDROGEN GROUPS
Info: RIGID BONDS TO HYDROGEN : ALL
Info:         ERROR TOLERANCE : 1e-08
Info:          MAX ITERATIONS : 100
Info: RIGID WATER USING SETTLE ALGORITHM
Info: RANDOM NUMBER SEED     1743764213
Info: USE HYDROGEN BONDS?    NO
Info: Using AMBER format force field!
Info: AMBER PARM FILE        mobley_3843583.prmtop
Info: COORDINATE PDB         mobley_3843583.pdb
Info: Exclusions will be read from PARM file!
Info: SCNB (VDW SCALING)     2
Info: USING ARITHMETIC MEAN TO COMBINE L-J SIGMA PARAMETERS
Info: BINARY COORDINATES     mobley_3843583_min.coor
Info: SUMMARY OF PARAMETERS:
Info: 6 BONDS
Info: 5 ANGLES
Info:   5 HARMONIC
Info:   0 COSINE-BASED
Info: 3 DIHEDRAL
Info: 0 IMPROPER
Info: 0 CROSSTERM
Info: 0 VDW
Info: 21 VDW_PAIRS
Info: 0 NBTHOLE_PAIRS
Info: STRUCTURE SUMMARY:
Info: 2936 ATOMS
Info: 2937 BONDS
Info: 33 ANGLES
Info: 59 DIHEDRALS
Info: 0 IMPROPERS
Info: 0 CROSSTERMS
Info: 3012 EXCLUSIONS
Info: 20 FIXED ATOMS
Info: 2925 RIGID BONDS
Info: 9 RIGID BONDS BETWEEN FIXED ATOMS
Info: 5832 DEGREES OF FREEDOM
Info: 983 HYDROGEN GROUPS
Info: 3 ATOMS IN LARGEST HYDROGEN GROUP
Info: 983 MIGRATION GROUPS
Info: 3 ATOMS IN LARGEST MIGRATION GROUP
Info: 11 HYDROGEN GROUPS WITH ALL ATOMS FIXED
Info: TOTAL MASS = 17654.7 amu
Info: TOTAL CHARGE = 0.000199977 e
Info: MASS DENSITY = 0.683582 g/cm^3
Info: ATOM DENSITY = 0.0684583 atoms/A^3
Info: ADDED 0 IMPLICIT EXCLUSIONS
Info: NONBONDED TABLE R-SQUARED SPACING: 0.0625
Info: NONBONDED TABLE SIZE: 705 POINTS
Info: REMOVING COM VELOCITY -0.0110267 -0.304395 0.0614816
TCL: Running for 100000 steps
ETITLE: TS BOND ANGLE DIHED IMPRP ELECT VDW BOUNDARY MISC KINETIC TOTAL TEMP POTENTIAL TOTAL3 TEMPAVG PRESSURE GPRESSURE VOLUME PRESSAVG GPRESSAVG
ENERGY: 0 0.0000 0.0000 0.0000 0.0000 -13794.0039 2402.6378 0.0000 0.0000 1756.8782 -9634.4880 303.1898 -11391.3662 -9634.1426 303.1898 317.6287 350.1113 42887.4062 317.6287 350.1113
ENERGY: 100000 0.0000 0.0000 0.0000 0.0000 -14205.7356 2471.3372 0.0000 0.0000 175.3163 -11559.0821 30.2549 -11734.3984 -11558.8108 30.8588 -1.8070 36.4173 29465.7772 4.2825 4.2755
TCL: Running 100000 steps at 60 kelvin.
TCL: Setting parameter langevinTemp to 60
TCL: Running for 100000 steps
ETITLE: TS BOND ANGLE DIHED IMPRP ELECT VDW BOUNDARY MISC KINETIC TOTAL TEMP POTENTIAL TOTAL3 TEMPAVG PRESSURE GPRESSURE VOLUME PRESSAVG GPRESSAVG
ENERGY: 100000 0.0000 0.0000 0.0000 0.0000 -14205.7356 2471.3372 0.0000 0.0000 175.2289 -11559.1694 30.2398 -11734.3984 -11558.8200 30.2398 -29.1775 36.0647 29465.7772 -29.1775 36.0647
ENERGY: 200000 0.0000 0.0000 0.0000 0.0000 -14001.0710 2399.0336 0.0000 0.0000 352.4964 -11249.5411 60.8314 -11602.0374 -11248.4951 59.8967 -75.5891 -10.0346 29447.8214 4.8738 4.8153
TCL: Running 100000 steps at 90 kelvin.
TCL: Setting parameter langevinTemp to 90
TCL: Running for 100000 steps
ETITLE: TS BOND ANGLE DIHED IMPRP ELECT VDW BOUNDARY MISC KINETIC TOTAL TEMP POTENTIAL TOTAL3 TEMPAVG PRESSURE GPRESSURE VOLUME PRESSAVG GPRESSAVG
ENERGY: 200000 0.0000 0.0000 0.0000 0.0000 -14001.0710 2399.0336 0.0000 0.0000 352.3133 -11249.7241 60.7998 -11602.0374 -11248.8626 60.7998 -69.6660 -10.4131 29447.8214 -69.6660 -10.4131
ENERGY: 300000 0.0000 0.0000 0.0000 0.0000 -13950.3398 2407.5961 0.0000 0.0000 511.6220 -11031.1217 88.2921 -11542.7436 -11029.6855 90.1156 359.7555 406.9085 28860.5720 4.7635 4.7380
TCL: Running 100000 steps at 120 kelvin.
TCL: Setting parameter langevinTemp to 120
TCL: Running for 100000 steps
ETITLE: TS BOND ANGLE DIHED IMPRP ELECT VDW BOUNDARY MISC KINETIC TOTAL TEMP POTENTIAL TOTAL3 TEMPAVG PRESSURE GPRESSURE VOLUME PRESSAVG GPRESSAVG
ENERGY: 300000 0.0000 0.0000 0.0000 0.0000 -13950.3398 2407.5961 0.0000 0.0000 511.3724 -11031.3712 88.2491 -11542.7436 -11030.2128 88.2491 350.7979 407.0776 28860.5720 350.7979 407.0776
ENERGY: 400000 0.0000 0.0000 0.0000 0.0000 -13845.2754 2375.8926 0.0000 0.0000 703.3550 -10766.0278 121.3801 -11469.3828 -10764.4432 120.3956 597.8196 655.3372 28414.3749 3.1242 3.1279
TCL: Running 100000 steps at 150 kelvin.
TCL: Setting parameter langevinTemp to 150
TCL: Running for 100000 steps
ETITLE: TS BOND ANGLE DIHED IMPRP ELECT VDW BOUNDARY MISC KINETIC TOTAL TEMP POTENTIAL TOTAL3 TEMPAVG PRESSURE GPRESSURE VOLUME PRESSAVG GPRESSAVG
ENERGY: 400000 0.0000 0.0000 0.0000 0.0000 -13845.2754 2375.8926 0.0000 0.0000 703.0210 -10766.3618 121.3225 -11469.3828 -10765.3437 121.3225 595.7956 656.3056 28414.3749 595.7956 656.3056
ENERGY: 500000 0.0000 0.0000 0.0000 0.0000 -13676.6294 2386.3723 0.0000 0.0000 853.8341 -10436.4230 147.3487 -11290.2571 -10435.0138 149.8614 1476.0950 1554.2271 28223.9560 5.2710 4.9840
TCL: Running 100000 steps at 180 kelvin.
TCL: Setting parameter langevinTemp to 180
TCL: Running for 100000 steps
ETITLE: TS BOND ANGLE DIHED IMPRP ELECT VDW BOUNDARY MISC KINETIC TOTAL TEMP POTENTIAL TOTAL3 TEMPAVG PRESSURE GPRESSURE VOLUME PRESSAVG GPRESSAVG
ENERGY: 500000 0.0000 0.0000 0.0000 0.0000 -13676.6294 2386.3723 0.0000 0.0000 853.4129 -10436.8442 147.2760 -11290.2571 -10435.6513 147.2760 1498.2632 1553.4948 28223.9560 1498.2632 1553.4948
ENERGY: 600000 0.0000 0.0000 0.0000 0.0000 -13060.5680 2103.9502 0.0000 0.0000 1057.5172 -9899.1006 182.4989 -10956.6177 -9895.3457 179.8150 151.1074 242.6637 28555.1123 2.6609 2.8254
TCL: Running 100000 steps at 210 kelvin.
TCL: Setting parameter langevinTemp to 210
TCL: Running for 100000 steps
ETITLE: TS BOND ANGLE DIHED IMPRP ELECT VDW BOUNDARY MISC KINETIC TOTAL TEMP POTENTIAL TOTAL3 TEMPAVG PRESSURE GPRESSURE VOLUME PRESSAVG GPRESSAVG
ENERGY: 600000 0.0000 0.0000 0.0000 0.0000 -13060.5680 2103.9502 0.0000 0.0000 1056.9887 -9899.6291 182.4077 -10956.6177 -9898.0581 182.4077 172.2173 244.6213 28555.1123 172.2173 244.6213
ENERGY: 700000 0.0000 0.0000 0.0000 0.0000 -12366.2606 1863.1189 0.0000 0.0000 1199.1968 -9303.9448 206.9490 -10503.1417 -9301.5924 209.6754 36.6107 106.3509 28594.2431 3.5560 3.4585
TCL: Running 100000 steps at 240 kelvin.
TCL: Setting parameter langevinTemp to 240
TCL: Running for 100000 steps
ETITLE: TS BOND ANGLE DIHED IMPRP ELECT VDW BOUNDARY MISC KINETIC TOTAL TEMP POTENTIAL TOTAL3 TEMPAVG PRESSURE GPRESSURE VOLUME PRESSAVG GPRESSAVG
ENERGY: 700000 0.0000 0.0000 0.0000 0.0000 -12366.2606 1863.1189 0.0000 0.0000 1198.5652 -9304.5764 206.8400 -10503.1417 -9302.3263 206.8400 27.7257 106.2560 28594.2431 27.7257 106.2560
ENERGY: 800000 0.0000 0.0000 0.0000 0.0000 -11794.6963 1686.7928 0.0000 0.0000 1377.5514 -8730.3521 237.7282 -10107.9035 -8725.9557 239.5983 -35.6238 48.8594 28840.5868 3.0045 2.7827
TCL: Running 100000 steps at 270 kelvin.
TCL: Setting parameter langevinTemp to 270
TCL: Running for 100000 steps
ETITLE: TS BOND ANGLE DIHED IMPRP ELECT VDW BOUNDARY MISC KINETIC TOTAL TEMP POTENTIAL TOTAL3 TEMPAVG PRESSURE GPRESSURE VOLUME PRESSAVG GPRESSAVG
ENERGY: 800000 0.0000 0.0000 0.0000 0.0000 -11794.6963 1686.7928 0.0000 0.0000 1376.8199 -8731.0835 237.6020 -10107.9035 -8728.7379 237.6020 -25.7670 50.1403 28840.5868 -25.7670 50.1403
ENERGY: 900000 0.0000 0.0000 0.0000 0.0000 -11316.0457 1612.6214 0.0000 0.0000 1596.2371 -8107.1872 275.4674 -9703.4243 -8106.7731 270.4502 486.9648 590.2021 29419.2129 1.9029 1.8290
TCL: Running 1000000 steps at 300 kelvin.
TCL: Setting parameter langevinTemp to 300
TCL: Running for 1000000 steps
ETITLE: TS BOND ANGLE DIHED IMPRP ELECT VDW BOUNDARY MISC KINETIC TOTAL TEMP POTENTIAL TOTAL3 TEMPAVG PRESSURE GPRESSURE VOLUME PRESSAVG GPRESSAVG
ENERGY: 900000 0.0000 0.0000 0.0000 0.0000 -11316.0457 1612.6214 0.0000 0.0000 1595.4395 -8107.9848 275.3298 -9703.4243 -8105.8000 275.3298 500.3805 589.7585 29419.2129 500.3805 589.7585
ENERGY: 1100000 0.0000 0.0000 0.0000 0.0000 -10621.9930 1366.2389 0.0000 0.0000 1723.7183 -7532.0359 297.4672 -9255.7542 -7532.1445 299.9597 -336.0058 -229.4269 30168.7551 2.6679 2.4403
ENERGY: 1300000 0.0000 0.0000 0.0000 0.0000 -10769.0652 1461.4458 0.0000 0.0000 1735.3941 -7572.2252 299.4822 -9307.6193 -7573.3462 300.2832 198.0796 366.9750 30071.1275 3.7412 3.7795
ENERGY: 1500000 0.0000 0.0000 0.0000 0.0000 -10657.8218 1378.4003 0.0000 0.0000 1766.6722 -7512.7492 304.8799 -9279.4215 -7508.1847 300.0534 -11.1966 95.2710 29692.3518 1.7587 1.7019
ENERGY: 1700000 0.0000 0.0000 0.0000 0.0000 -10723.8075 1454.5751 0.0000 0.0000 1807.4583 -7461.7741 311.9185 -9269.2324 -7455.9913 299.5767 56.0864 127.8052 30577.2640 3.0297 2.9545
ENERGY: 1900000 0.0000 0.0000 0.0000 0.0000 -10586.9417 1372.7992 0.0000 0.0000 1696.5151 -7517.6273 292.7727 -9214.1424 -7514.2685 299.9687 -362.6352 -344.1697 30475.9586 4.1228 4.2114
TCL: Exiting due to exit command.
