Info: SIMULATION PARAMETERS:
Info: TIMESTEP               2
Info: NUMBER OF STEPS        0
Info: STEPS PER CYCLE        10
Info: PERIODIC CELL BASIS 1  38.861 0 0
Info: PERIODIC CELL BASIS 2  0 35.411 0
Info: PERIODIC CELL BASIS 3  0 0 31.855
Info: PERIODIC CELL CENTER   0 0 0
Info: WRAPPING WATERS AROUND PERIODIC BOUNDARIES ON OUTPUT.
Info: WRAPPING ALL CLUSTERS AROUND PERIODIC BOUNDARIES ON OUTPUT.
Info: FIRST LDB TIMESTEP     50
Info: LAST LDB TIMESTEP     -1
Info: HOM BACKGROUND SCALING 1
Info: PME BACKGROUND SCALING 1
Info: MIN ATOMS PER PATCH    40
Info: EMPTY PATCH LOAD       40 ATOMS
Info: INITIAL TEMPERATURE    300
Info: CENTER OF MASS MOVING INITIALLY? NO
Info: DIELECTRIC             1
Info: EXCLUDE                SCALED ONE-FOUR
Info: 1-4 ELECTROSTATICS SCALED BY 0.833333
Info: MODIFIED 1-4 VDW PARAMETERS WILL BE USED
Info: DCD FILENAME           mobley_3968739_equil.dcd
Info: DCD FREQUENCY          100000
Info: DCD FIRST STEP         100000
Info: DCD FILE WILL CONTAIN UNIT CELL DATA
Info: XST FILENAME           mobley_3968739_equil.xst
Info: XST FREQUENCY          100000
Info: NO VELOCITY DCD OUTPUT
Info: NO FORCE DCD OUTPUT
Info: OUTPUT FILENAME        mobley_3968739_equil
Info: BINARY OUTPUT FILES WILL BE USED
Info: RESTART FILENAME       mobley_3968739_equil.restart
Info: RESTART FREQUENCY      100000
Info: BINARY RESTART FILES WILL BE USED
Info: CUTOFF                 9
Info: PAIRLIST DISTANCE      11
Info: PAIRLIST SHRINK RATE   0.01
Info: PAIRLIST GROW RATE     0.01
Info: PAIRLIST TRIGGER       0.3
Info: PAIRLISTS PER CYCLE    2
Info: PAIRLISTS ENABLED
Info: MARGIN                 8
Info: HYDROGEN GROUP CUTOFF  2.5
Info: PATCH DIMENSION        21.5
Info: ENERGY OUTPUT STEPS    100000
Info: ENERGY EVALUATION STEPS    100000
Info: OUTPUT ENERGY PRECISION 4
Info: CROSSTERM ENERGY INCLUDED IN DIHEDRAL
Info: TIMING OUTPUT STEPS    1000000
Info: PRESSURE OUTPUT STEPS  100000
Info: FIXED ATOMS ACTIVE
Info: LANGEVIN DYNAMICS ACTIVE
Info: LANGEVIN TEMPERATURE   30
Info: LANGEVIN USING BBK INTEGRATOR
Info: LANGEVIN DAMPING COEFFICIENT IS 1 INVERSE PS
Info: LANGEVIN DYNAMICS APPLIED TO HYDROGENS
Info: LANGEVIN PISTON PRESSURE CONTROL ACTIVE
Info:        TARGET PRESSURE IS 1.01325 BAR
Info:     OSCILLATION PERIOD IS 50 FS
Info:             DECAY TIME IS 25 FS
Info:     PISTON TEMPERATURE IS 300 K
Info:       PRESSURE CONTROL IS GROUP-BASED
Info:    INITIAL STRAIN RATE IS 0 0 0
Info:       CELL FLUCTUATION IS ISOTROPIC
Info: PARTICLE MESH EWALD (PME) ACTIVE
Info: PME TOLERANCE               1e-06
Info: PME EWALD COEFFICIENT       0.348832
Info: PME INTERPOLATION ORDER     4
Info: PME GRID DIMENSIONS         40 36 32
Info: PME MAXIMUM GRID SPACING    1
Info: FULL ELECTROSTATIC EVALUATION FREQUENCY      2
Info: USING VERLET I (r-RESPA) MTS SCHEME.
Info: C1 SPLITTING OF LONG RANGE ELECTROSTATICS
Info: PLACING ATOMS IN PATCHES BY HYDROGEN GROUPS
Info: RIGID BONDS TO HYDROGEN : ALL
Info:         ERROR TOLERANCE : 1e-08
Info:          MAX ITERATIONS : 100
Info: RIGID WATER USING SETTLE ALGORITHM
Info: RANDOM NUMBER SEED     1744088129
Info: USE HYDROGEN BONDS?    NO
Info: Using AMBER format force field!
Info: AMBER PARM FILE        mobley_3968739.prmtop
Info: COORDINATE PDB         mobley_3968739.pdb
Info: Exclusions will be read from PARM file!
Info: SCNB (VDW SCALING)     2
Info: USING ARITHMETIC MEAN TO COMBINE L-J SIGMA PARAMETERS
Info: BINARY COORDINATES     mobley_3968739_min.coor
Info: SUMMARY OF PARAMETERS:
Info: 9 BONDS
Info: 9 ANGLES
Info:   9 HARMONIC
Info:   0 COSINE-BASED
Info: 6 DIHEDRAL
Info: 0 IMPROPER
Info: 0 CROSSTERM
Info: 0 VDW
Info: 36 VDW_PAIRS
Info: 0 NBTHOLE_PAIRS
Info: STRUCTURE SUMMARY:
Info: 2973 ATOMS
Info: 2973 BONDS
Info: 28 ANGLES
Info: 41 DIHEDRALS
Info: 0 IMPROPERS
Info: 0 CROSSTERMS
Info: 3031 EXCLUSIONS
Info: 18 FIXED ATOMS
Info: 2963 RIGID BONDS
Info: 8 RIGID BONDS BETWEEN FIXED ATOMS
Info: 5910 DEGREES OF FREEDOM
Info: 995 HYDROGEN GROUPS
Info: 4 ATOMS IN LARGEST HYDROGEN GROUP
Info: 995 MIGRATION GROUPS
Info: 4 ATOMS IN LARGEST MIGRATION GROUP
Info: 10 HYDROGEN GROUPS WITH ALL ATOMS FIXED
Info: TOTAL MASS = 17881.9 amu
Info: TOTAL CHARGE = 0.000200033 e
Info: MASS DENSITY = 0.677397 g/cm^3
Info: ATOM DENSITY = 0.0678211 atoms/A^3
Info: ADDED 0 IMPLICIT EXCLUSIONS
Info: NONBONDED TABLE R-SQUARED SPACING: 0.0625
Info: NONBONDED TABLE SIZE: 705 POINTS
Info: REMOVING COM VELOCITY -0.0387331 -0.041199 0.0911571
TCL: Running for 100000 steps
ETITLE: TS BOND ANGLE DIHED IMPRP ELECT VDW BOUNDARY MISC KINETIC TOTAL TEMP POTENTIAL TOTAL3 TEMPAVG PRESSURE GPRESSURE VOLUME PRESSAVG GPRESSAVG
ENERGY: 0 0.0000 0.0000 0.0000 0.0000 -13839.3938 2414.2228 0.0000 0.0000 1766.5252 -9658.6458 300.8311 -11425.1710 -9658.2869 300.8311 375.8581 410.8472 43835.8844 375.8581 410.8472
ENERGY: 100000 0.0000 0.0000 0.0000 0.0000 -14390.1374 2482.4163 0.0000 0.0000 178.2303 -11729.4907 30.3518 -11907.7210 -11728.8252 30.8059 -235.8102 -168.7097 29394.0180 3.3655 3.3957
TCL: Running 100000 steps at 60 kelvin.
TCL: Setting parameter langevinTemp to 60
TCL: Running for 100000 steps
ETITLE: TS BOND ANGLE DIHED IMPRP ELECT VDW BOUNDARY MISC KINETIC TOTAL TEMP POTENTIAL TOTAL3 TEMPAVG PRESSURE GPRESSURE VOLUME PRESSAVG GPRESSAVG
ENERGY: 100000 0.0000 0.0000 0.0000 0.0000 -14390.1374 2482.4163 0.0000 0.0000 178.1424 -11729.5787 30.3368 -11907.7210 -11729.1404 30.3368 -215.7998 -168.5606 29394.0180 -215.7998 -168.5606
ENERGY: 200000 0.0000 0.0000 0.0000 0.0000 -14197.6168 2416.4071 0.0000 0.0000 352.7948 -11428.4149 60.0793 -11781.2097 -11427.9752 60.0273 -166.2101 -115.8170 29309.9257 3.2016 3.2554
TCL: Running 100000 steps at 90 kelvin.
TCL: Setting parameter langevinTemp to 90
TCL: Running for 100000 steps
ETITLE: TS BOND ANGLE DIHED IMPRP ELECT VDW BOUNDARY MISC KINETIC TOTAL TEMP POTENTIAL TOTAL3 TEMPAVG PRESSURE GPRESSURE VOLUME PRESSAVG GPRESSAVG
ENERGY: 200000 0.0000 0.0000 0.0000 0.0000 -14197.6168 2416.4071 0.0000 0.0000 352.6259 -11428.5838 60.0506 -11781.2097 -11427.8748 60.0506 -163.7849 -115.6473 29309.9257 -163.7849 -115.6473
ENERGY: 300000 0.0000 0.0000 0.0000 0.0000 -14066.6918 2341.3917 0.0000 0.0000 520.5250 -11204.7751 88.6430 -11725.3001 -11203.7600 90.1223 -524.3783 -481.9454 29245.0677 2.6256 2.4590
TCL: Running 100000 steps at 120 kelvin.
TCL: Setting parameter langevinTemp to 120
TCL: Running for 100000 steps
ETITLE: TS BOND ANGLE DIHED IMPRP ELECT VDW BOUNDARY MISC KINETIC TOTAL TEMP POTENTIAL TOTAL3 TEMPAVG PRESSURE GPRESSURE VOLUME PRESSAVG GPRESSAVG
ENERGY: 300000 0.0000 0.0000 0.0000 0.0000 -14066.6918 2341.3917 0.0000 0.0000 520.2588 -11205.0413 88.5977 -11725.3001 -11203.9991 88.5977 -527.5116 -482.5914 29245.0677 -527.5116 -482.5914
ENERGY: 400000 0.0000 0.0000 0.0000 0.0000 -13956.2233 2372.9745 0.0000 0.0000 714.5273 -10868.7214 121.6807 -11583.2488 -10867.1668 119.8423 207.8967 248.6506 29438.3029 3.5712 3.6208
TCL: Running 100000 steps at 150 kelvin.
TCL: Setting parameter langevinTemp to 150
TCL: Running for 100000 steps
ETITLE: TS BOND ANGLE DIHED IMPRP ELECT VDW BOUNDARY MISC KINETIC TOTAL TEMP POTENTIAL TOTAL3 TEMPAVG PRESSURE GPRESSURE VOLUME PRESSAVG GPRESSAVG
ENERGY: 400000 0.0000 0.0000 0.0000 0.0000 -13956.2233 2372.9745 0.0000 0.0000 714.1686 -10869.0802 121.6196 -11583.2488 -10867.3904 121.6196 209.8899 248.0386 29438.3029 209.8899 248.0386
ENERGY: 500000 0.0000 0.0000 0.0000 0.0000 -13883.3204 2455.5125 0.0000 0.0000 865.8569 -10561.9509 147.4514 -11427.8078 -10559.6738 150.1494 1457.1296 1506.2656 29132.2868 4.2414 4.2253
TCL: Running 100000 steps at 180 kelvin.
TCL: Setting parameter langevinTemp to 180
TCL: Running for 100000 steps
ETITLE: TS BOND ANGLE DIHED IMPRP ELECT VDW BOUNDARY MISC KINETIC TOTAL TEMP POTENTIAL TOTAL3 TEMPAVG PRESSURE GPRESSURE VOLUME PRESSAVG GPRESSAVG
ENERGY: 500000 0.0000 0.0000 0.0000 0.0000 -13883.3204 2455.5125 0.0000 0.0000 865.4111 -10562.3967 147.3755 -11427.8078 -10561.1560 147.3755 1456.6817 1506.9174 29132.2868 1456.6817 1506.9174
ENERGY: 600000 0.0000 0.0000 0.0000 0.0000 -13318.0336 2122.7103 0.0000 0.0000 1046.5110 -10148.8123 178.2160 -11195.3233 -10146.8329 179.8877 -219.8598 -124.1390 29009.4319 3.1620 3.0810
TCL: Running 100000 steps at 210 kelvin.
TCL: Setting parameter langevinTemp to 210
TCL: Running for 100000 steps
ETITLE: TS BOND ANGLE DIHED IMPRP ELECT VDW BOUNDARY MISC KINETIC TOTAL TEMP POTENTIAL TOTAL3 TEMPAVG PRESSURE GPRESSURE VOLUME PRESSAVG GPRESSAVG
ENERGY: 600000 0.0000 0.0000 0.0000 0.0000 -13318.0336 2122.7103 0.0000 0.0000 1045.9744 -10149.3489 178.1246 -11195.3233 -10147.2070 178.1246 -196.2690 -125.5210 29009.4319 -196.2690 -125.5210
ENERGY: 700000 0.0000 0.0000 0.0000 0.0000 -12586.4982 1916.8996 0.0000 0.0000 1228.2224 -9441.3762 209.1606 -10669.5986 -9437.5313 209.6762 -44.2160 66.4179 28937.1210 3.0890 3.1797
TCL: Running 100000 steps at 240 kelvin.
TCL: Setting parameter langevinTemp to 240
TCL: Running for 100000 steps
ETITLE: TS BOND ANGLE DIHED IMPRP ELECT VDW BOUNDARY MISC KINETIC TOTAL TEMP POTENTIAL TOTAL3 TEMPAVG PRESSURE GPRESSURE VOLUME PRESSAVG GPRESSAVG
ENERGY: 700000 0.0000 0.0000 0.0000 0.0000 -12586.4982 1916.8996 0.0000 0.0000 1227.5899 -9442.0087 209.0529 -10669.5986 -9439.7517 209.0529 -16.6036 67.2545 28937.1210 -16.6036 67.2545
ENERGY: 800000 0.0000 0.0000 0.0000 0.0000 -12001.0459 1801.4964 0.0000 0.0000 1412.3658 -8787.1837 240.5194 -10199.5495 -8783.3580 239.9070 670.7217 735.3369 29278.4532 4.2823 4.2345
TCL: Running 100000 steps at 270 kelvin.
TCL: Setting parameter langevinTemp to 270
TCL: Running for 100000 steps
ETITLE: TS BOND ANGLE DIHED IMPRP ELECT VDW BOUNDARY MISC KINETIC TOTAL TEMP POTENTIAL TOTAL3 TEMPAVG PRESSURE GPRESSURE VOLUME PRESSAVG GPRESSAVG
ENERGY: 800000 0.0000 0.0000 0.0000 0.0000 -12001.0459 1801.4964 0.0000 0.0000 1411.6524 -8787.8971 240.3979 -10199.5495 -8786.1766 240.3979 657.6345 735.4945 29278.4532 657.6345 735.4945
ENERGY: 900000 0.0000 0.0000 0.0000 0.0000 -11245.5031 1515.1142 0.0000 0.0000 1576.6183 -8153.7706 268.4908 -9730.3890 -8150.6063 270.2040 -413.3077 -311.4290 30162.7429 2.9750 2.8837
TCL: Running 1000000 steps at 300 kelvin.
TCL: Setting parameter langevinTemp to 300
TCL: Running for 1000000 steps
ETITLE: TS BOND ANGLE DIHED IMPRP ELECT VDW BOUNDARY MISC KINETIC TOTAL TEMP POTENTIAL TOTAL3 TEMPAVG PRESSURE GPRESSURE VOLUME PRESSAVG GPRESSAVG
ENERGY: 900000 0.0000 0.0000 0.0000 0.0000 -11245.5031 1515.1142 0.0000 0.0000 1575.8196 -8154.5694 268.3548 -9730.3890 -8151.7564 268.3548 -394.6584 -310.4991 30162.7429 -394.6584 -310.4991
ENERGY: 1100000 0.0000 0.0000 0.0000 0.0000 -10843.6522 1459.3142 0.0000 0.0000 1782.6216 -7601.7164 303.5722 -9384.3380 -7596.8116 299.8357 110.4616 171.7200 30484.0356 4.2442 4.2365
ENERGY: 1300000 0.0000 0.0000 0.0000 0.0000 -10701.2993 1346.8804 0.0000 0.0000 1858.3629 -7496.0560 316.4706 -9354.4189 -7493.5038 299.9946 -569.7835 -514.3609 30710.6001 3.5445 3.6122
ENERGY: 1500000 0.0000 0.0000 0.0000 0.0000 -10841.3875 1421.7831 0.0000 0.0000 1748.1472 -7671.4571 297.7014 -9419.6044 -7667.0126 300.2503 -181.5202 -90.2201 30501.6607 2.3664 2.3539
ENERGY: 1700000 0.0000 0.0000 0.0000 0.0000 -10834.6905 1421.6991 0.0000 0.0000 1732.6941 -7680.2973 295.0698 -9412.9914 -7674.8341 300.0701 -367.0696 -276.6145 31010.0585 3.9096 3.9294
ENERGY: 1900000 0.0000 0.0000 0.0000 0.0000 -10673.8171 1319.6659 0.0000 0.0000 1718.8015 -7635.3497 292.7040 -9354.1512 -7632.4674 299.7439 -1144.6789 -1032.4502 31216.5916 2.0282 1.9731
TCL: Exiting due to exit command.
