Info: SIMULATION PARAMETERS:
Info: TIMESTEP               2
Info: NUMBER OF STEPS        0
Info: STEPS PER CYCLE        10
Info: PERIODIC CELL BASIS 1  37.968 0 0
Info: PERIODIC CELL BASIS 2  0 35.779 0
Info: PERIODIC CELL BASIS 3  0 0 32.993
Info: PERIODIC CELL CENTER   0 0 0
Info: WRAPPING WATERS AROUND PERIODIC BOUNDARIES ON OUTPUT.
Info: WRAPPING ALL CLUSTERS AROUND PERIODIC BOUNDARIES ON OUTPUT.
Info: FIRST LDB TIMESTEP     50
Info: LAST LDB TIMESTEP     -1
Info: HOM BACKGROUND SCALING 1
Info: PME BACKGROUND SCALING 1
Info: MIN ATOMS PER PATCH    40
Info: EMPTY PATCH LOAD       40 ATOMS
Info: INITIAL TEMPERATURE    300
Info: CENTER OF MASS MOVING INITIALLY? NO
Info: DIELECTRIC             1
Info: EXCLUDE                SCALED ONE-FOUR
Info: 1-4 ELECTROSTATICS SCALED BY 0.833333
Info: MODIFIED 1-4 VDW PARAMETERS WILL BE USED
Info: DCD FILENAME           mobley_3398536_equil.dcd
Info: DCD FREQUENCY          100000
Info: DCD FIRST STEP         100000
Info: DCD FILE WILL CONTAIN UNIT CELL DATA
Info: XST FILENAME           mobley_3398536_equil.xst
Info: XST FREQUENCY          100000
Info: NO VELOCITY DCD OUTPUT
Info: NO FORCE DCD OUTPUT
Info: OUTPUT FILENAME        mobley_3398536_equil
Info: BINARY OUTPUT FILES WILL BE USED
Info: RESTART FILENAME       mobley_3398536_equil.restart
Info: RESTART FREQUENCY      100000
Info: BINARY RESTART FILES WILL BE USED
Info: CUTOFF                 9
Info: PAIRLIST DISTANCE      11
Info: PAIRLIST SHRINK RATE   0.01
Info: PAIRLIST GROW RATE     0.01
Info: PAIRLIST TRIGGER       0.3
Info: PAIRLISTS PER CYCLE    2
Info: PAIRLISTS ENABLED
Info: MARGIN                 8
Info: HYDROGEN GROUP CUTOFF  2.5
Info: PATCH DIMENSION        21.5
Info: ENERGY OUTPUT STEPS    100000
Info: ENERGY EVALUATION STEPS    100000
Info: OUTPUT ENERGY PRECISION 4
Info: CROSSTERM ENERGY INCLUDED IN DIHEDRAL
Info: TIMING OUTPUT STEPS    1000000
Info: PRESSURE OUTPUT STEPS  100000
Info: FIXED ATOMS ACTIVE
Info: LANGEVIN DYNAMICS ACTIVE
Info: LANGEVIN TEMPERATURE   30
Info: LANGEVIN USING BBK INTEGRATOR
Info: LANGEVIN DAMPING COEFFICIENT IS 1 INVERSE PS
Info: LANGEVIN DYNAMICS APPLIED TO HYDROGENS
Info: LANGEVIN PISTON PRESSURE CONTROL ACTIVE
Info:        TARGET PRESSURE IS 1.01325 BAR
Info:     OSCILLATION PERIOD IS 50 FS
Info:             DECAY TIME IS 25 FS
Info:     PISTON TEMPERATURE IS 300 K
Info:       PRESSURE CONTROL IS GROUP-BASED
Info:    INITIAL STRAIN RATE IS 0 0 0
Info:       CELL FLUCTUATION IS ISOTROPIC
Info: PARTICLE MESH EWALD (PME) ACTIVE
Info: PME TOLERANCE               1e-06
Info: PME EWALD COEFFICIENT       0.348832
Info: PME INTERPOLATION ORDER     4
Info: PME GRID DIMENSIONS         40 36 36
Info: PME MAXIMUM GRID SPACING    1
Info: FULL ELECTROSTATIC EVALUATION FREQUENCY      2
Info: USING VERLET I (r-RESPA) MTS SCHEME.
Info: C1 SPLITTING OF LONG RANGE ELECTROSTATICS
Info: PLACING ATOMS IN PATCHES BY HYDROGEN GROUPS
Info: RIGID BONDS TO HYDROGEN : ALL
Info:         ERROR TOLERANCE : 1e-08
Info:          MAX ITERATIONS : 100
Info: RIGID WATER USING SETTLE ALGORITHM
Info: RANDOM NUMBER SEED     1743720185
Info: USE HYDROGEN BONDS?    NO
Info: Using AMBER format force field!
Info: AMBER PARM FILE        mobley_3398536.prmtop
Info: COORDINATE PDB         mobley_3398536.pdb
Info: Exclusions will be read from PARM file!
Info: SCNB (VDW SCALING)     2
Info: USING ARITHMETIC MEAN TO COMBINE L-J SIGMA PARAMETERS
Info: BINARY COORDINATES     mobley_3398536_min.coor
Info: SUMMARY OF PARAMETERS:
Info: 5 BONDS
Info: 3 ANGLES
Info:   3 HARMONIC
Info:   0 COSINE-BASED
Info: 2 DIHEDRAL
Info: 0 IMPROPER
Info: 0 CROSSTERM
Info: 0 VDW
Info: 15 VDW_PAIRS
Info: 0 NBTHOLE_PAIRS
Info: STRUCTURE SUMMARY:
Info: 3000 ATOMS
Info: 3000 BONDS
Info: 18 ANGLES
Info: 30 DIHEDRALS
Info: 0 IMPROPERS
Info: 0 CROSSTERMS
Info: 3039 EXCLUSIONS
Info: 12 FIXED ATOMS
Info: 2993 RIGID BONDS
Info: 5 RIGID BONDS BETWEEN FIXED ATOMS
Info: 5976 DEGREES OF FREEDOM
Info: 1003 HYDROGEN GROUPS
Info: 3 ATOMS IN LARGEST HYDROGEN GROUP
Info: 1003 MIGRATION GROUPS
Info: 3 ATOMS IN LARGEST MIGRATION GROUP
Info: 7 HYDROGEN GROUPS WITH ALL ATOMS FIXED
Info: TOTAL MASS = 18147.9 amu
Info: TOTAL CHARGE = 0.000100022 e
Info: MASS DENSITY = 0.672386 g/cm^3
Info: ATOM DENSITY = 0.066935 atoms/A^3
Info: ADDED 0 IMPLICIT EXCLUSIONS
Info: NONBONDED TABLE R-SQUARED SPACING: 0.0625
Info: NONBONDED TABLE SIZE: 705 POINTS
Info: REMOVING COM VELOCITY -0.0452303 -0.119662 -0.169455
TCL: Running for 100000 steps
ETITLE: TS BOND ANGLE DIHED IMPRP ELECT VDW BOUNDARY MISC KINETIC TOTAL TEMP POTENTIAL TOTAL3 TEMPAVG PRESSURE GPRESSURE VOLUME PRESSAVG GPRESSAVG
ENERGY: 0 0.0000 0.0000 0.0000 0.0000 -13910.9574 2452.8449 0.0000 0.0000 1785.0641 -9673.0484 300.6309 -11458.1125 -9672.6670 300.6309 519.6609 552.7954 44819.5742 519.6609 552.7954
ENERGY: 100000 0.0000 0.0000 0.0000 0.0000 -14549.8510 2574.2874 0.0000 0.0000 179.6577 -11795.9059 30.2570 -11975.5636 -11795.5030 30.9486 268.7779 349.5688 29826.8215 5.0631 5.0608
TCL: Running 100000 steps at 60 kelvin.
TCL: Setting parameter langevinTemp to 60
TCL: Running for 100000 steps
ETITLE: TS BOND ANGLE DIHED IMPRP ELECT VDW BOUNDARY MISC KINETIC TOTAL TEMP POTENTIAL TOTAL3 TEMPAVG PRESSURE GPRESSURE VOLUME PRESSAVG GPRESSAVG
ENERGY: 100000 0.0000 0.0000 0.0000 0.0000 -14549.8510 2574.2874 0.0000 0.0000 179.5713 -11795.9923 30.2424 -11975.5636 -11795.6863 30.2424 289.2656 349.5040 29826.8215 289.2656 349.5040
ENERGY: 200000 0.0000 0.0000 0.0000 0.0000 -14362.2700 2501.2046 0.0000 0.0000 352.6046 -11508.4608 59.3838 -11861.0654 -11507.2731 59.9129 195.2862 221.4258 29578.4335 3.3814 3.3818
TCL: Running 100000 steps at 90 kelvin.
TCL: Setting parameter langevinTemp to 90
TCL: Running for 100000 steps
ETITLE: TS BOND ANGLE DIHED IMPRP ELECT VDW BOUNDARY MISC KINETIC TOTAL TEMP POTENTIAL TOTAL3 TEMPAVG PRESSURE GPRESSURE VOLUME PRESSAVG GPRESSAVG
ENERGY: 200000 0.0000 0.0000 0.0000 0.0000 -14362.2700 2501.2046 0.0000 0.0000 352.4345 -11508.6310 59.3551 -11861.0654 -11508.0611 59.3551 170.0609 221.7560 29578.4335 170.0609 221.7560
ENERGY: 300000 0.0000 0.0000 0.0000 0.0000 -14227.1173 2460.6162 0.0000 0.0000 518.4937 -11248.0074 87.3219 -11766.5011 -11247.2875 90.1039 193.4966 206.4824 29427.6915 4.6990 4.6445
TCL: Running 100000 steps at 120 kelvin.
TCL: Setting parameter langevinTemp to 120
TCL: Running for 100000 steps
ETITLE: TS BOND ANGLE DIHED IMPRP ELECT VDW BOUNDARY MISC KINETIC TOTAL TEMP POTENTIAL TOTAL3 TEMPAVG PRESSURE GPRESSURE VOLUME PRESSAVG GPRESSAVG
ENERGY: 300000 0.0000 0.0000 0.0000 0.0000 -14227.1173 2460.6162 0.0000 0.0000 518.2378 -11248.2633 87.2788 -11766.5011 -11247.2860 87.2788 161.1488 205.8256 29427.6915 161.1488 205.8256
ENERGY: 400000 0.0000 0.0000 0.0000 0.0000 -13897.9471 2252.1627 0.0000 0.0000 715.9377 -10929.8467 120.5744 -11645.7844 -10927.2531 119.8038 -1180.7774 -1114.4776 29944.9074 3.7341 3.6886
TCL: Running 100000 steps at 150 kelvin.
TCL: Setting parameter langevinTemp to 150
TCL: Running for 100000 steps
ETITLE: TS BOND ANGLE DIHED IMPRP ELECT VDW BOUNDARY MISC KINETIC TOTAL TEMP POTENTIAL TOTAL3 TEMPAVG PRESSURE GPRESSURE VOLUME PRESSAVG GPRESSAVG
ENERGY: 400000 0.0000 0.0000 0.0000 0.0000 -13897.9471 2252.1627 0.0000 0.0000 715.5921 -10930.1922 120.5162 -11645.7844 -10928.4702 120.5162 -1165.3294 -1114.4433 29944.9074 -1165.3294 -1114.4433
ENERGY: 500000 0.0000 0.0000 0.0000 0.0000 -13635.7398 2178.1511 0.0000 0.0000 905.0462 -10552.5426 152.4230 -11457.5887 -10548.7147 149.8977 -944.5996 -931.2325 29884.8475 1.8751 1.8386
TCL: Running 100000 steps at 180 kelvin.
TCL: Setting parameter langevinTemp to 180
TCL: Running for 100000 steps
ETITLE: TS BOND ANGLE DIHED IMPRP ELECT VDW BOUNDARY MISC KINETIC TOTAL TEMP POTENTIAL TOTAL3 TEMPAVG PRESSURE GPRESSURE VOLUME PRESSAVG GPRESSAVG
ENERGY: 500000 0.0000 0.0000 0.0000 0.0000 -13635.7398 2178.1511 0.0000 0.0000 904.6056 -10552.9831 152.3488 -11457.5887 -10550.9214 152.3488 -989.5858 -931.0684 29884.8475 -989.5858 -931.0684
ENERGY: 600000 0.0000 0.0000 0.0000 0.0000 -13334.8556 2098.1687 0.0000 0.0000 1084.0898 -10152.5970 182.5766 -11236.6868 -10150.6735 179.8819 -605.2035 -518.6113 29290.8157 3.6865 3.6691
TCL: Running 100000 steps at 210 kelvin.
TCL: Setting parameter langevinTemp to 210
TCL: Running for 100000 steps
ETITLE: TS BOND ANGLE DIHED IMPRP ELECT VDW BOUNDARY MISC KINETIC TOTAL TEMP POTENTIAL TOTAL3 TEMPAVG PRESSURE GPRESSURE VOLUME PRESSAVG GPRESSAVG
ENERGY: 600000 0.0000 0.0000 0.0000 0.0000 -13334.8556 2098.1687 0.0000 0.0000 1083.5331 -10153.1538 182.4828 -11236.6868 -10150.6188 182.4828 -595.2438 -518.5581 29290.8157 -595.2438 -518.5581
ENERGY: 700000 0.0000 0.0000 0.0000 0.0000 -12607.5407 1903.5718 0.0000 0.0000 1260.4987 -9443.4701 212.2864 -10703.9688 -9440.5441 209.6154 -73.9686 -16.6524 29298.5862 4.1831 4.0744
TCL: Running 100000 steps at 240 kelvin.
TCL: Setting parameter langevinTemp to 240
TCL: Running for 100000 steps
ETITLE: TS BOND ANGLE DIHED IMPRP ELECT VDW BOUNDARY MISC KINETIC TOTAL TEMP POTENTIAL TOTAL3 TEMPAVG PRESSURE GPRESSURE VOLUME PRESSAVG GPRESSAVG
ENERGY: 700000 0.0000 0.0000 0.0000 0.0000 -12607.5407 1903.5718 0.0000 0.0000 1259.8914 -9444.0774 212.1841 -10703.9688 -9441.8027 212.1841 -89.4138 -17.5668 29298.5862 -89.4138 -17.5668
ENERGY: 800000 0.0000 0.0000 0.0000 0.0000 -11876.7686 1662.4344 0.0000 0.0000 1381.5335 -8832.8007 232.6704 -10214.3342 -8830.9038 239.9931 -670.7041 -586.6059 29816.1707 2.2622 2.1597
TCL: Running 100000 steps at 270 kelvin.
TCL: Setting parameter langevinTemp to 270
TCL: Running for 100000 steps
ETITLE: TS BOND ANGLE DIHED IMPRP ELECT VDW BOUNDARY MISC KINETIC TOTAL TEMP POTENTIAL TOTAL3 TEMPAVG PRESSURE GPRESSURE VOLUME PRESSAVG GPRESSAVG
ENERGY: 800000 0.0000 0.0000 0.0000 0.0000 -11876.7686 1662.4344 0.0000 0.0000 1380.8475 -8833.4867 232.5549 -10214.3342 -8831.3367 232.5549 -667.5016 -588.5626 29816.1707 -667.5016 -588.5626
ENERGY: 900000 0.0000 0.0000 0.0000 0.0000 -11411.4620 1548.4155 0.0000 0.0000 1559.9421 -8303.1044 262.7171 -9863.0465 -8300.0910 270.2899 -188.4571 -127.7205 29823.1459 4.5567 4.5410
TCL: Running 1000000 steps at 300 kelvin.
TCL: Setting parameter langevinTemp to 300
TCL: Running for 1000000 steps
ETITLE: TS BOND ANGLE DIHED IMPRP ELECT VDW BOUNDARY MISC KINETIC TOTAL TEMP POTENTIAL TOTAL3 TEMPAVG PRESSURE GPRESSURE VOLUME PRESSAVG GPRESSAVG
ENERGY: 900000 0.0000 0.0000 0.0000 0.0000 -11411.4620 1548.4155 0.0000 0.0000 1559.1708 -8303.8757 262.5872 -9863.0465 -8301.4579 262.5872 -205.7927 -127.8624 29823.1459 -205.7927 -127.8624
ENERGY: 1100000 0.0000 0.0000 0.0000 0.0000 -10841.0962 1436.6023 0.0000 0.0000 1752.7374 -7651.7565 295.1866 -9404.4939 -7648.7616 300.1583 -204.1338 -154.5171 31008.5747 3.4183 3.4574
ENERGY: 1300000 0.0000 0.0000 0.0000 0.0000 -10911.1982 1450.9575 0.0000 0.0000 1747.0102 -7713.2306 294.2221 -9460.2408 -7708.3068 299.9030 -217.4982 -113.6493 30957.1384 4.4286 4.4295
ENERGY: 1500000 0.0000 0.0000 0.0000 0.0000 -10981.7431 1528.5569 0.0000 0.0000 1772.7526 -7680.4336 298.5575 -9453.1862 -7679.6009 299.9078 444.8650 480.9369 31174.5467 1.6475 1.5912
ENERGY: 1700000 0.0000 0.0000 0.0000 0.0000 -10722.0470 1323.4502 0.0000 0.0000 1780.4577 -7618.1391 299.8551 -9398.5968 -7613.5455 300.0649 -777.0373 -763.2371 30902.4316 2.7096 2.9134
ENERGY: 1900000 0.0000 0.0000 0.0000 0.0000 -11019.2628 1527.6518 0.0000 0.0000 1777.4694 -7714.1416 299.3518 -9491.6111 -7713.6250 300.4386 183.1315 289.7457 31166.0032 2.0193 2.0729
TCL: Exiting due to exit command.
