Info: SIMULATION PARAMETERS:
Info: TIMESTEP               2
Info: NUMBER OF STEPS        0
Info: STEPS PER CYCLE        10
Info: PERIODIC CELL BASIS 1  37.133 0 0
Info: PERIODIC CELL BASIS 2  0 35.779 0
Info: PERIODIC CELL BASIS 3  0 0 33.27
Info: PERIODIC CELL CENTER   0 0 0
Info: WRAPPING WATERS AROUND PERIODIC BOUNDARIES ON OUTPUT.
Info: WRAPPING ALL CLUSTERS AROUND PERIODIC BOUNDARIES ON OUTPUT.
Info: FIRST LDB TIMESTEP     50
Info: LAST LDB TIMESTEP     -1
Info: HOM BACKGROUND SCALING 1
Info: PME BACKGROUND SCALING 1
Info: MIN ATOMS PER PATCH    40
Info: EMPTY PATCH LOAD       40 ATOMS
Info: INITIAL TEMPERATURE    300
Info: CENTER OF MASS MOVING INITIALLY? NO
Info: DIELECTRIC             1
Info: EXCLUDE                SCALED ONE-FOUR
Info: 1-4 ELECTROSTATICS SCALED BY 0.833333
Info: MODIFIED 1-4 VDW PARAMETERS WILL BE USED
Info: DCD FILENAME           mobley_4287564_equil.dcd
Info: DCD FREQUENCY          100000
Info: DCD FIRST STEP         100000
Info: DCD FILE WILL CONTAIN UNIT CELL DATA
Info: XST FILENAME           mobley_4287564_equil.xst
Info: XST FREQUENCY          100000
Info: NO VELOCITY DCD OUTPUT
Info: NO FORCE DCD OUTPUT
Info: OUTPUT FILENAME        mobley_4287564_equil
Info: BINARY OUTPUT FILES WILL BE USED
Info: RESTART FILENAME       mobley_4287564_equil.restart
Info: RESTART FREQUENCY      100000
Info: BINARY RESTART FILES WILL BE USED
Info: CUTOFF                 9
Info: PAIRLIST DISTANCE      11
Info: PAIRLIST SHRINK RATE   0.01
Info: PAIRLIST GROW RATE     0.01
Info: PAIRLIST TRIGGER       0.3
Info: PAIRLISTS PER CYCLE    2
Info: PAIRLISTS ENABLED
Info: MARGIN                 8
Info: HYDROGEN GROUP CUTOFF  2.5
Info: PATCH DIMENSION        21.5
Info: ENERGY OUTPUT STEPS    100000
Info: ENERGY EVALUATION STEPS    100000
Info: OUTPUT ENERGY PRECISION 4
Info: CROSSTERM ENERGY INCLUDED IN DIHEDRAL
Info: TIMING OUTPUT STEPS    1000000
Info: PRESSURE OUTPUT STEPS  100000
Info: FIXED ATOMS ACTIVE
Info: LANGEVIN DYNAMICS ACTIVE
Info: LANGEVIN TEMPERATURE   30
Info: LANGEVIN USING BBK INTEGRATOR
Info: LANGEVIN DAMPING COEFFICIENT IS 1 INVERSE PS
Info: LANGEVIN DYNAMICS APPLIED TO HYDROGENS
Info: LANGEVIN PISTON PRESSURE CONTROL ACTIVE
Info:        TARGET PRESSURE IS 1.01325 BAR
Info:     OSCILLATION PERIOD IS 50 FS
Info:             DECAY TIME IS 25 FS
Info:     PISTON TEMPERATURE IS 300 K
Info:       PRESSURE CONTROL IS GROUP-BASED
Info:    INITIAL STRAIN RATE IS 0 0 0
Info:       CELL FLUCTUATION IS ISOTROPIC
Info: PARTICLE MESH EWALD (PME) ACTIVE
Info: PME TOLERANCE               1e-06
Info: PME EWALD COEFFICIENT       0.348832
Info: PME INTERPOLATION ORDER     4
Info: PME GRID DIMENSIONS         40 36 36
Info: PME MAXIMUM GRID SPACING    1
Info: FULL ELECTROSTATIC EVALUATION FREQUENCY      2
Info: USING VERLET I (r-RESPA) MTS SCHEME.
Info: C1 SPLITTING OF LONG RANGE ELECTROSTATICS
Info: PLACING ATOMS IN PATCHES BY HYDROGEN GROUPS
Info: RIGID BONDS TO HYDROGEN : ALL
Info:         ERROR TOLERANCE : 1e-08
Info:          MAX ITERATIONS : 100
Info: RIGID WATER USING SETTLE ALGORITHM
Info: RANDOM NUMBER SEED     1743730932
Info: USE HYDROGEN BONDS?    NO
Info: Using AMBER format force field!
Info: AMBER PARM FILE        mobley_4287564.prmtop
Info: COORDINATE PDB         mobley_4287564.pdb
Info: Exclusions will be read from PARM file!
Info: SCNB (VDW SCALING)     2
Info: USING ARITHMETIC MEAN TO COMBINE L-J SIGMA PARAMETERS
Info: BINARY COORDINATES     mobley_4287564_min.coor
Info: SUMMARY OF PARAMETERS:
Info: 8 BONDS
Info: 10 ANGLES
Info:   10 HARMONIC
Info:   0 COSINE-BASED
Info: 4 DIHEDRAL
Info: 0 IMPROPER
Info: 0 CROSSTERM
Info: 0 VDW
Info: 36 VDW_PAIRS
Info: 0 NBTHOLE_PAIRS
Info: STRUCTURE SUMMARY:
Info: 2939 ATOMS
Info: 2939 BONDS
Info: 22 ANGLES
Info: 31 DIHEDRALS
Info: 0 IMPROPERS
Info: 0 CROSSTERMS
Info: 2984 EXCLUSIONS
Info: 14 FIXED ATOMS
Info: 2932 RIGID BONDS
Info: 7 RIGID BONDS BETWEEN FIXED ATOMS
Info: 5850 DEGREES OF FREEDOM
Info: 982 HYDROGEN GROUPS
Info: 4 ATOMS IN LARGEST HYDROGEN GROUP
Info: 982 MIGRATION GROUPS
Info: 4 ATOMS IN LARGEST MIGRATION GROUP
Info: 7 HYDROGEN GROUPS WITH ALL ATOMS FIXED
Info: TOTAL MASS = 17658.7 amu
Info: TOTAL CHARGE = 0.000100024 e
Info: MASS DENSITY = 0.663403 g/cm^3
Info: ATOM DENSITY = 0.0664903 atoms/A^3
Info: ADDED 0 IMPLICIT EXCLUSIONS
Info: NONBONDED TABLE R-SQUARED SPACING: 0.0625
Info: NONBONDED TABLE SIZE: 705 POINTS
Info: REMOVING COM VELOCITY 0.00951018 -0.249968 0.229231
TCL: Running for 100000 steps
ETITLE: TS BOND ANGLE DIHED IMPRP ELECT VDW BOUNDARY MISC KINETIC TOTAL TEMP POTENTIAL TOTAL3 TEMPAVG PRESSURE GPRESSURE VOLUME PRESSAVG GPRESSAVG
ENERGY: 0 0.0000 0.0000 0.0000 0.0000 -13631.6700 2358.9396 0.0000 0.0000 1694.0832 -9578.6472 291.4535 -11272.7304 -9578.3336 291.4535 277.4069 306.7707 44201.9101 277.4069 306.7707
ENERGY: 100000 0.0000 0.0000 0.0000 0.0000 -14088.0166 2393.1554 0.0000 0.0000 173.3015 -11521.5597 29.8151 -11694.8611 -11520.9867 30.8904 -453.6573 -404.5564 29351.3503 3.1415 3.1102
TCL: Running 100000 steps at 60 kelvin.
TCL: Setting parameter langevinTemp to 60
TCL: Running for 100000 steps
ETITLE: TS BOND ANGLE DIHED IMPRP ELECT VDW BOUNDARY MISC KINETIC TOTAL TEMP POTENTIAL TOTAL3 TEMPAVG PRESSURE GPRESSURE VOLUME PRESSAVG GPRESSAVG
ENERGY: 100000 0.0000 0.0000 0.0000 0.0000 -14088.0166 2393.1554 0.0000 0.0000 173.2138 -11521.6473 29.8001 -11694.8611 -11521.2754 29.8001 -461.3736 -404.4341 29351.3503 -461.3736 -404.4341
ENERGY: 200000 0.0000 0.0000 0.0000 0.0000 -14224.0122 2569.0504 0.0000 0.0000 348.8588 -11306.1030 60.0184 -11654.9618 -11305.6818 59.8326 1500.9211 1551.4186 28282.6930 2.7108 2.6415
TCL: Running 100000 steps at 90 kelvin.
TCL: Setting parameter langevinTemp to 90
TCL: Running for 100000 steps
ETITLE: TS BOND ANGLE DIHED IMPRP ELECT VDW BOUNDARY MISC KINETIC TOTAL TEMP POTENTIAL TOTAL3 TEMPAVG PRESSURE GPRESSURE VOLUME PRESSAVG GPRESSAVG
ENERGY: 200000 0.0000 0.0000 0.0000 0.0000 -14224.0122 2569.0504 0.0000 0.0000 348.6853 -11306.2765 59.9885 -11654.9618 -11305.5903 59.9885 1496.5010 1550.7496 28282.6930 1496.5010 1550.7496
ENERGY: 300000 0.0000 0.0000 0.0000 0.0000 -13867.3874 2275.1934 0.0000 0.0000 521.1175 -11071.0765 89.6541 -11592.1940 -11070.0215 90.0009 -836.7064 -786.2960 28674.7494 5.0306 4.9441
TCL: Running 100000 steps at 120 kelvin.
TCL: Setting parameter langevinTemp to 120
TCL: Running for 100000 steps
ETITLE: TS BOND ANGLE DIHED IMPRP ELECT VDW BOUNDARY MISC KINETIC TOTAL TEMP POTENTIAL TOTAL3 TEMPAVG PRESSURE GPRESSURE VOLUME PRESSAVG GPRESSAVG
ENERGY: 300000 0.0000 0.0000 0.0000 0.0000 -13867.3874 2275.1934 0.0000 0.0000 520.8623 -11071.3317 89.6102 -11592.1940 -11070.3787 89.6102 -845.7221 -786.6963 28674.7494 -845.7221 -786.6963
ENERGY: 400000 0.0000 0.0000 0.0000 0.0000 -13860.7395 2352.8521 0.0000 0.0000 709.2357 -10798.6517 122.0183 -11507.8875 -10797.1651 119.7778 379.0937 430.8792 28281.6750 4.5893 4.6317
TCL: Running 100000 steps at 150 kelvin.
TCL: Setting parameter langevinTemp to 150
TCL: Running for 100000 steps
ETITLE: TS BOND ANGLE DIHED IMPRP ELECT VDW BOUNDARY MISC KINETIC TOTAL TEMP POTENTIAL TOTAL3 TEMPAVG PRESSURE GPRESSURE VOLUME PRESSAVG GPRESSAVG
ENERGY: 400000 0.0000 0.0000 0.0000 0.0000 -13860.7395 2352.8521 0.0000 0.0000 708.8772 -10799.0103 121.9567 -11507.8875 -10797.5044 121.9567 376.1736 429.8500 28281.6750 376.1736 429.8500
ENERGY: 500000 0.0000 0.0000 0.0000 0.0000 -13669.6623 2340.7536 0.0000 0.0000 882.1493 -10446.7593 151.7667 -11328.9086 -10444.5672 150.3204 805.3069 858.7649 28479.9555 3.7081 3.7266
TCL: Running 100000 steps at 180 kelvin.
TCL: Setting parameter langevinTemp to 180
TCL: Running for 100000 steps
ETITLE: TS BOND ANGLE DIHED IMPRP ELECT VDW BOUNDARY MISC KINETIC TOTAL TEMP POTENTIAL TOTAL3 TEMPAVG PRESSURE GPRESSURE VOLUME PRESSAVG GPRESSAVG
ENERGY: 500000 0.0000 0.0000 0.0000 0.0000 -13669.6623 2340.7536 0.0000 0.0000 881.7054 -10447.2032 151.6904 -11328.9086 -10445.8179 151.6904 802.4889 859.7341 28479.9555 802.4889 859.7341
ENERGY: 600000 0.0000 0.0000 0.0000 0.0000 -13080.9518 2063.1118 0.0000 0.0000 1050.3450 -9967.4950 180.7035 -11017.8400 -9964.8478 179.4847 -661.4741 -621.9487 29164.9785 4.6803 4.7882
TCL: Running 100000 steps at 210 kelvin.
TCL: Setting parameter langevinTemp to 210
TCL: Running for 100000 steps
ETITLE: TS BOND ANGLE DIHED IMPRP ELECT VDW BOUNDARY MISC KINETIC TOTAL TEMP POTENTIAL TOTAL3 TEMPAVG PRESSURE GPRESSURE VOLUME PRESSAVG GPRESSAVG
ENERGY: 600000 0.0000 0.0000 0.0000 0.0000 -13080.9518 2063.1118 0.0000 0.0000 1049.8348 -9968.0052 180.6157 -11017.8400 -9965.9129 180.6157 -688.1672 -619.9014 29164.9785 -688.1672 -619.9014
ENERGY: 700000 0.0000 0.0000 0.0000 0.0000 -12395.0519 1876.3799 0.0000 0.0000 1197.8501 -9320.8219 206.0805 -10518.6720 -9317.3762 210.0721 160.8319 239.8286 28528.1477 4.1703 4.0361
TCL: Running 100000 steps at 240 kelvin.
TCL: Setting parameter langevinTemp to 240
TCL: Running for 100000 steps
ETITLE: TS BOND ANGLE DIHED IMPRP ELECT VDW BOUNDARY MISC KINETIC TOTAL TEMP POTENTIAL TOTAL3 TEMPAVG PRESSURE GPRESSURE VOLUME PRESSAVG GPRESSAVG
ENERGY: 700000 0.0000 0.0000 0.0000 0.0000 -12395.0519 1876.3799 0.0000 0.0000 1197.2517 -9321.4203 205.9776 -10518.6720 -9319.2738 205.9776 158.1770 239.6732 28528.1477 158.1770 239.6732
ENERGY: 800000 0.0000 0.0000 0.0000 0.0000 -11907.9967 1754.7052 0.0000 0.0000 1411.1037 -8742.1878 242.7691 -10153.2915 -8738.2097 240.0677 132.4124 210.8377 29068.2626 3.9930 3.9281
TCL: Running 100000 steps at 270 kelvin.
TCL: Setting parameter langevinTemp to 270
TCL: Running for 100000 steps
ETITLE: TS BOND ANGLE DIHED IMPRP ELECT VDW BOUNDARY MISC KINETIC TOTAL TEMP POTENTIAL TOTAL3 TEMPAVG PRESSURE GPRESSURE VOLUME PRESSAVG GPRESSAVG
ENERGY: 800000 0.0000 0.0000 0.0000 0.0000 -11907.9967 1754.7052 0.0000 0.0000 1410.3959 -8742.8956 242.6474 -10153.2915 -8740.0503 242.6474 145.2036 209.1673 29068.2626 145.2036 209.1673
ENERGY: 900000 0.0000 0.0000 0.0000 0.0000 -11282.2197 1637.1946 0.0000 0.0000 1613.3536 -8031.6715 277.5646 -9645.0251 -8029.1408 269.5657 865.9127 901.5673 29489.7710 3.9897 4.0180
TCL: Running 1000000 steps at 300 kelvin.
TCL: Setting parameter langevinTemp to 300
TCL: Running for 1000000 steps
ETITLE: TS BOND ANGLE DIHED IMPRP ELECT VDW BOUNDARY MISC KINETIC TOTAL TEMP POTENTIAL TOTAL3 TEMPAVG PRESSURE GPRESSURE VOLUME PRESSAVG GPRESSAVG
ENERGY: 900000 0.0000 0.0000 0.0000 0.0000 -11282.2197 1637.1946 0.0000 0.0000 1612.5232 -8032.5019 277.4217 -9645.0251 -8030.4931 277.4217 820.3813 901.5024 29489.7710 820.3813 901.5024
ENERGY: 1100000 0.0000 0.0000 0.0000 0.0000 -10740.7442 1451.2086 0.0000 0.0000 1726.4073 -7563.1283 297.0146 -9289.5356 -7560.8319 299.8174 365.2219 433.4198 29815.0892 4.8844 4.8580
ENERGY: 1300000 0.0000 0.0000 0.0000 0.0000 -10718.0811 1451.9862 0.0000 0.0000 1735.9185 -7530.1764 298.6509 -9266.0949 -7525.2268 300.4347 377.3884 538.2998 29955.8328 2.0210 1.9054
ENERGY: 1500000 0.0000 0.0000 0.0000 0.0000 -10802.2035 1418.3302 0.0000 0.0000 1774.2768 -7609.5964 305.2502 -9383.8733 -7605.0527 299.9767 -395.0242 -282.8600 30236.2831 3.4785 3.2918
ENERGY: 1700000 0.0000 0.0000 0.0000 0.0000 -10688.4740 1408.6168 0.0000 0.0000 1726.6515 -7553.2056 297.0566 -9279.8572 -7551.2332 300.8662 -437.0149 -315.4340 30489.7532 4.1153 4.0795
ENERGY: 1900000 0.0000 0.0000 0.0000 0.0000 -10842.2842 1468.6916 0.0000 0.0000 1721.9255 -7651.6670 296.2435 -9373.5925 -7649.3656 300.1869 85.5789 239.9246 29825.8557 3.4504 3.4684
TCL: Exiting due to exit command.
