Info: SIMULATION PARAMETERS:
Info: TIMESTEP               2
Info: NUMBER OF STEPS        0
Info: STEPS PER CYCLE        10
Info: PERIODIC CELL BASIS 1  39.512 0 0
Info: PERIODIC CELL BASIS 2  0 35.847 0
Info: PERIODIC CELL BASIS 3  0 0 31.061
Info: PERIODIC CELL CENTER   0 0 0
Info: WRAPPING WATERS AROUND PERIODIC BOUNDARIES ON OUTPUT.
Info: WRAPPING ALL CLUSTERS AROUND PERIODIC BOUNDARIES ON OUTPUT.
Info: FIRST LDB TIMESTEP     50
Info: LAST LDB TIMESTEP     -1
Info: HOM BACKGROUND SCALING 1
Info: PME BACKGROUND SCALING 1
Info: MIN ATOMS PER PATCH    40
Info: EMPTY PATCH LOAD       40 ATOMS
Info: INITIAL TEMPERATURE    300
Info: CENTER OF MASS MOVING INITIALLY? NO
Info: DIELECTRIC             1
Info: EXCLUDE                SCALED ONE-FOUR
Info: 1-4 ELECTROSTATICS SCALED BY 0.833333
Info: MODIFIED 1-4 VDW PARAMETERS WILL BE USED
Info: DCD FILENAME           mobley_242480_equil.dcd
Info: DCD FREQUENCY          100000
Info: DCD FIRST STEP         100000
Info: DCD FILE WILL CONTAIN UNIT CELL DATA
Info: XST FILENAME           mobley_242480_equil.xst
Info: XST FREQUENCY          100000
Info: NO VELOCITY DCD OUTPUT
Info: NO FORCE DCD OUTPUT
Info: OUTPUT FILENAME        mobley_242480_equil
Info: BINARY OUTPUT FILES WILL BE USED
Info: RESTART FILENAME       mobley_242480_equil.restart
Info: RESTART FREQUENCY      100000
Info: BINARY RESTART FILES WILL BE USED
Info: CUTOFF                 9
Info: PAIRLIST DISTANCE      11
Info: PAIRLIST SHRINK RATE   0.01
Info: PAIRLIST GROW RATE     0.01
Info: PAIRLIST TRIGGER       0.3
Info: PAIRLISTS PER CYCLE    2
Info: PAIRLISTS ENABLED
Info: MARGIN                 8
Info: HYDROGEN GROUP CUTOFF  2.5
Info: PATCH DIMENSION        21.5
Info: ENERGY OUTPUT STEPS    100000
Info: ENERGY EVALUATION STEPS    100000
Info: OUTPUT ENERGY PRECISION 4
Info: CROSSTERM ENERGY INCLUDED IN DIHEDRAL
Info: TIMING OUTPUT STEPS    1000000
Info: PRESSURE OUTPUT STEPS  100000
Info: FIXED ATOMS ACTIVE
Info: LANGEVIN DYNAMICS ACTIVE
Info: LANGEVIN TEMPERATURE   30
Info: LANGEVIN USING BBK INTEGRATOR
Info: LANGEVIN DAMPING COEFFICIENT IS 1 INVERSE PS
Info: LANGEVIN DYNAMICS APPLIED TO HYDROGENS
Info: LANGEVIN PISTON PRESSURE CONTROL ACTIVE
Info:        TARGET PRESSURE IS 1.01325 BAR
Info:     OSCILLATION PERIOD IS 50 FS
Info:             DECAY TIME IS 25 FS
Info:     PISTON TEMPERATURE IS 300 K
Info:       PRESSURE CONTROL IS GROUP-BASED
Info:    INITIAL STRAIN RATE IS 0 0 0
Info:       CELL FLUCTUATION IS ISOTROPIC
Info: PARTICLE MESH EWALD (PME) ACTIVE
Info: PME TOLERANCE               1e-06
Info: PME EWALD COEFFICIENT       0.348832
Info: PME INTERPOLATION ORDER     4
Info: PME GRID DIMENSIONS         40 36 32
Info: PME MAXIMUM GRID SPACING    1
Info: FULL ELECTROSTATIC EVALUATION FREQUENCY      2
Info: USING VERLET I (r-RESPA) MTS SCHEME.
Info: C1 SPLITTING OF LONG RANGE ELECTROSTATICS
Info: PLACING ATOMS IN PATCHES BY HYDROGEN GROUPS
Info: RIGID BONDS TO HYDROGEN : ALL
Info:         ERROR TOLERANCE : 1e-08
Info:          MAX ITERATIONS : 100
Info: RIGID WATER USING SETTLE ALGORITHM
Info: RANDOM NUMBER SEED     1743765489
Info: USE HYDROGEN BONDS?    NO
Info: Using AMBER format force field!
Info: AMBER PARM FILE        mobley_242480.prmtop
Info: COORDINATE PDB         mobley_242480.pdb
Info: Exclusions will be read from PARM file!
Info: SCNB (VDW SCALING)     2
Info: USING ARITHMETIC MEAN TO COMBINE L-J SIGMA PARAMETERS
Info: BINARY COORDINATES     mobley_242480_min.coor
Info: SUMMARY OF PARAMETERS:
Info: 8 BONDS
Info: 8 ANGLES
Info: 5 DIHEDRAL
Info: 0 IMPROPER
Info: 0 CROSSTERM
Info: 0 VDW
Info: 28 VDW_PAIRS
Info: 0 NBTHOLE_PAIRS
Info: STRUCTURE SUMMARY:
Info: 2932 ATOMS
Info: 2934 BONDS
Info: 48 ANGLES
Info: 88 DIHEDRALS
Info: 0 IMPROPERS
Info: 0 CROSSTERMS
Info: 3045 EXCLUSIONS
Info: 28 FIXED ATOMS
Info: 2914 RIGID BONDS
Info: 10 RIGID BONDS BETWEEN FIXED ATOMS
Info: 5808 DEGREES OF FREEDOM
Info: 986 HYDROGEN GROUPS
Info: 3 ATOMS IN LARGEST HYDROGEN GROUP
Info: 986 MIGRATION GROUPS
Info: 3 ATOMS IN LARGEST MIGRATION GROUP
Info: 18 HYDROGEN GROUPS WITH ALL ATOMS FIXED
Info: TOTAL MASS = 17677.7 amu
Info: TOTAL CHARGE = 0.000299968 e
Info: MASS DENSITY = 0.66725 g/cm^3
Info: ATOM DENSITY = 0.0666449 atoms/A^3
Info: ADDED 0 IMPLICIT EXCLUSIONS
Info: NONBONDED TABLE R-SQUARED SPACING: 0.0625
Info: NONBONDED TABLE SIZE: 705 POINTS
Info: REMOVING COM VELOCITY -0.13837 0.133828 0.103307
TCL: Running for 100000 steps
ETITLE: TS BOND ANGLE DIHED IMPRP ELECT VDW BOUNDARY MISC KINETIC TOTAL TEMP POTENTIAL TOTAL3 TEMPAVG PRESSURE GPRESSURE VOLUME PRESSAVG GPRESSAVG
ENERGY: 0 0.0000 0.0000 0.0000 0.0000 -13805.4285 2377.5809 0.0000 0.0000 1735.3866 -9692.4610 300.7184 -11427.8476 -9692.1219 300.7184 482.9223 505.2470 43994.3862 482.9223 505.2470
ENERGY: 100000 0.0000 0.0000 0.0000 0.0000 -14288.3685 2433.2711 0.0000 0.0000 175.7220 -11679.3755 30.4502 -11855.0974 -11678.9515 30.9156 30.0636 84.2718 29107.5573 4.9972 4.9570
TCL: Running 100000 steps at 60 kelvin.
TCL: Setting parameter langevinTemp to 60
TCL: Running for 100000 steps
ETITLE: TS BOND ANGLE DIHED IMPRP ELECT VDW BOUNDARY MISC KINETIC TOTAL TEMP POTENTIAL TOTAL3 TEMPAVG PRESSURE GPRESSURE VOLUME PRESSAVG GPRESSAVG
ENERGY: 100000 0.0000 0.0000 0.0000 0.0000 -14288.3685 2433.2711 0.0000 0.0000 175.6384 -11679.4590 30.4357 -11855.0974 -11679.0486 30.4357 24.5781 84.2123 29107.5573 24.5781 84.2123
ENERGY: 200000 0.0000 0.0000 0.0000 0.0000 -14202.7353 2408.0493 0.0000 0.0000 347.3263 -11447.3597 60.1868 -11794.6860 -11445.9050 59.9973 77.7141 150.7166 28863.0114 4.0636 3.9619
TCL: Running 100000 steps at 90 kelvin.
TCL: Setting parameter langevinTemp to 90
TCL: Running for 100000 steps
ETITLE: TS BOND ANGLE DIHED IMPRP ELECT VDW BOUNDARY MISC KINETIC TOTAL TEMP POTENTIAL TOTAL3 TEMPAVG PRESSURE GPRESSURE VOLUME PRESSAVG GPRESSAVG
ENERGY: 200000 0.0000 0.0000 0.0000 0.0000 -14202.7353 2408.0493 0.0000 0.0000 347.1518 -11447.5342 60.1566 -11794.6860 -11446.8188 60.1566 89.0251 151.2343 28863.0114 89.0251 151.2343
ENERGY: 300000 0.0000 0.0000 0.0000 0.0000 -14077.9954 2401.9633 0.0000 0.0000 521.9636 -11154.0686 90.4491 -11676.0322 -11152.9843 90.0190 521.2900 599.3388 28710.2544 5.3098 5.2759
TCL: Running 100000 steps at 120 kelvin.
TCL: Setting parameter langevinTemp to 120
TCL: Running for 100000 steps
ETITLE: TS BOND ANGLE DIHED IMPRP ELECT VDW BOUNDARY MISC KINETIC TOTAL TEMP POTENTIAL TOTAL3 TEMPAVG PRESSURE GPRESSURE VOLUME PRESSAVG GPRESSAVG
ENERGY: 300000 0.0000 0.0000 0.0000 0.0000 -14077.9954 2401.9633 0.0000 0.0000 521.7096 -11154.3226 90.4050 -11676.0322 -11153.3807 90.4050 520.1695 599.1592 28710.2544 520.1695 599.1592
ENERGY: 400000 0.0000 0.0000 0.0000 0.0000 -13810.1547 2251.0557 0.0000 0.0000 685.1935 -10873.9054 118.7345 -11559.0989 -10871.7596 120.2498 -19.8264 42.3140 28486.2131 4.7801 4.6806
TCL: Running 100000 steps at 150 kelvin.
TCL: Setting parameter langevinTemp to 150
TCL: Running for 100000 steps
ETITLE: TS BOND ANGLE DIHED IMPRP ELECT VDW BOUNDARY MISC KINETIC TOTAL TEMP POTENTIAL TOTAL3 TEMPAVG PRESSURE GPRESSURE VOLUME PRESSAVG GPRESSAVG
ENERGY: 400000 0.0000 0.0000 0.0000 0.0000 -13810.1547 2251.0557 0.0000 0.0000 684.8557 -10874.2433 118.6760 -11559.0989 -10872.8475 118.6760 -27.2750 43.1213 28486.2131 -27.2750 43.1213
ENERGY: 500000 0.0000 0.0000 0.0000 0.0000 -13718.9123 2281.8732 0.0000 0.0000 881.8712 -10555.1678 152.8160 -11437.0390 -10552.0942 149.9929 420.3386 450.7638 28627.6549 4.3169 4.3473
TCL: Running 100000 steps at 180 kelvin.
TCL: Setting parameter langevinTemp to 180
TCL: Running for 100000 steps
ETITLE: TS BOND ANGLE DIHED IMPRP ELECT VDW BOUNDARY MISC KINETIC TOTAL TEMP POTENTIAL TOTAL3 TEMPAVG PRESSURE GPRESSURE VOLUME PRESSAVG GPRESSAVG
ENERGY: 500000 0.0000 0.0000 0.0000 0.0000 -13718.9123 2281.8732 0.0000 0.0000 881.4438 -10555.5952 152.7420 -11437.0390 -10553.9032 152.7420 405.9630 451.8353 28627.6549 405.9630 451.8353
ENERGY: 600000 0.0000 0.0000 0.0000 0.0000 -13209.1985 2042.0172 0.0000 0.0000 1044.2335 -10122.9478 180.9512 -11167.1813 -10119.6963 179.9482 -612.4909 -465.5390 28761.0906 4.8438 4.8073
TCL: Running 100000 steps at 210 kelvin.
TCL: Setting parameter langevinTemp to 210
TCL: Running for 100000 steps
ETITLE: TS BOND ANGLE DIHED IMPRP ELECT VDW BOUNDARY MISC KINETIC TOTAL TEMP POTENTIAL TOTAL3 TEMPAVG PRESSURE GPRESSURE VOLUME PRESSAVG GPRESSAVG
ENERGY: 600000 0.0000 0.0000 0.0000 0.0000 -13209.1985 2042.0172 0.0000 0.0000 1043.6939 -10123.4874 180.8577 -11167.1813 -10120.9770 180.8577 -539.2686 -466.7519 28761.0906 -539.2686 -466.7519
ENERGY: 700000 0.0000 0.0000 0.0000 0.0000 -12573.1982 1900.9798 0.0000 0.0000 1188.5639 -9483.6546 205.9616 -10672.2185 -9480.9896 209.5240 94.3123 108.5971 28783.5438 2.0189 1.8988
TCL: Running 100000 steps at 240 kelvin.
TCL: Setting parameter langevinTemp to 240
TCL: Running for 100000 steps
ETITLE: TS BOND ANGLE DIHED IMPRP ELECT VDW BOUNDARY MISC KINETIC TOTAL TEMP POTENTIAL TOTAL3 TEMPAVG PRESSURE GPRESSURE VOLUME PRESSAVG GPRESSAVG
ENERGY: 700000 0.0000 0.0000 0.0000 0.0000 -12573.1982 1900.9798 0.0000 0.0000 1187.9371 -9484.2814 205.8530 -10672.2185 -9482.1838 205.8530 30.1067 110.0573 28783.5438 30.1067 110.0573
ENERGY: 800000 0.0000 0.0000 0.0000 0.0000 -11868.7321 1697.6861 0.0000 0.0000 1366.2708 -8804.7752 236.7558 -10171.0460 -8803.2920 239.8374 93.0623 170.8660 28956.2778 2.6439 2.3856
TCL: Running 100000 steps at 270 kelvin.
TCL: Setting parameter langevinTemp to 270
TCL: Running for 100000 steps
ETITLE: TS BOND ANGLE DIHED IMPRP ELECT VDW BOUNDARY MISC KINETIC TOTAL TEMP POTENTIAL TOTAL3 TEMPAVG PRESSURE GPRESSURE VOLUME PRESSAVG GPRESSAVG
ENERGY: 800000 0.0000 0.0000 0.0000 0.0000 -11868.7321 1697.6861 0.0000 0.0000 1365.5781 -8805.4678 236.6357 -10171.0460 -8802.7880 236.6357 84.0134 168.2446 28956.2778 84.0134 168.2446
ENERGY: 900000 0.0000 0.0000 0.0000 0.0000 -11331.4562 1551.6104 0.0000 0.0000 1543.8542 -8235.9915 267.5285 -9779.8457 -8232.2992 269.9791 510.1526 534.0596 29018.6761 3.1644 3.2141
TCL: Running 1000000 steps at 300 kelvin.
TCL: Setting parameter langevinTemp to 300
TCL: Running for 1000000 steps
ETITLE: TS BOND ANGLE DIHED IMPRP ELECT VDW BOUNDARY MISC KINETIC TOTAL TEMP POTENTIAL TOTAL3 TEMPAVG PRESSURE GPRESSURE VOLUME PRESSAVG GPRESSAVG
ENERGY: 900000 0.0000 0.0000 0.0000 0.0000 -11331.4562 1551.6104 0.0000 0.0000 1543.0679 -8236.7778 267.3923 -9779.8457 -8234.1448 267.3923 458.2250 535.5937 29018.6761 458.2250 535.5937
ENERGY: 1100000 0.0000 0.0000 0.0000 0.0000 -10644.4457 1295.9728 0.0000 0.0000 1717.9134 -7630.5595 297.6905 -9348.4729 -7627.5579 300.0108 -752.8409 -603.1514 30265.7388 2.8079 2.8606
ENERGY: 1300000 0.0000 0.0000 0.0000 0.0000 -10760.1157 1364.7322 0.0000 0.0000 1674.7184 -7720.6651 290.2054 -9395.3835 -7718.8431 300.1352 -386.7134 -302.9157 30306.2875 4.0210 3.8943
ENERGY: 1500000 0.0000 0.0000 0.0000 0.0000 -10869.4107 1462.0619 0.0000 0.0000 1746.0798 -7661.2690 302.5714 -9407.3488 -7656.8444 300.1998 296.3685 392.6018 30463.0850 3.1915 3.5044
ENERGY: 1700000 0.0000 0.0000 0.0000 0.0000 -10762.8228 1382.0157 0.0000 0.0000 1705.6134 -7675.1937 295.5591 -9380.8071 -7672.7347 300.0459 -336.4058 -207.1245 30427.0834 2.9924 2.8866
ENERGY: 1900000 0.0000 0.0000 0.0000 0.0000 -10912.3463 1504.5952 0.0000 0.0000 1744.2555 -7663.4956 302.2553 -9407.7511 -7660.3471 300.2008 880.7275 979.9052 30026.7477 4.2694 4.3025
TCL: Exiting due to exit command.
