Info: SIMULATION PARAMETERS:
Info: TIMESTEP               2
Info: NUMBER OF STEPS        0
Info: STEPS PER CYCLE        10
Info: PERIODIC CELL BASIS 1  37.435 0 0
Info: PERIODIC CELL BASIS 2  0 36.451 0
Info: PERIODIC CELL BASIS 3  0 0 31.855
Info: PERIODIC CELL CENTER   0 0 0
Info: WRAPPING WATERS AROUND PERIODIC BOUNDARIES ON OUTPUT.
Info: WRAPPING ALL CLUSTERS AROUND PERIODIC BOUNDARIES ON OUTPUT.
Info: FIRST LDB TIMESTEP     50
Info: LAST LDB TIMESTEP     -1
Info: HOM BACKGROUND SCALING 1
Info: PME BACKGROUND SCALING 1
Info: MIN ATOMS PER PATCH    40
Info: EMPTY PATCH LOAD       40 ATOMS
Info: INITIAL TEMPERATURE    300
Info: CENTER OF MASS MOVING INITIALLY? NO
Info: DIELECTRIC             1
Info: EXCLUDE                SCALED ONE-FOUR
Info: 1-4 ELECTROSTATICS SCALED BY 0.833333
Info: MODIFIED 1-4 VDW PARAMETERS WILL BE USED
Info: DCD FILENAME           mobley_5948990_equil.dcd
Info: DCD FREQUENCY          100000
Info: DCD FIRST STEP         100000
Info: DCD FILE WILL CONTAIN UNIT CELL DATA
Info: XST FILENAME           mobley_5948990_equil.xst
Info: XST FREQUENCY          100000
Info: NO VELOCITY DCD OUTPUT
Info: NO FORCE DCD OUTPUT
Info: OUTPUT FILENAME        mobley_5948990_equil
Info: BINARY OUTPUT FILES WILL BE USED
Info: RESTART FILENAME       mobley_5948990_equil.restart
Info: RESTART FREQUENCY      100000
Info: BINARY RESTART FILES WILL BE USED
Info: CUTOFF                 9
Info: PAIRLIST DISTANCE      11
Info: PAIRLIST SHRINK RATE   0.01
Info: PAIRLIST GROW RATE     0.01
Info: PAIRLIST TRIGGER       0.3
Info: PAIRLISTS PER CYCLE    2
Info: PAIRLISTS ENABLED
Info: MARGIN                 8
Info: HYDROGEN GROUP CUTOFF  2.5
Info: PATCH DIMENSION        21.5
Info: ENERGY OUTPUT STEPS    100000
Info: ENERGY EVALUATION STEPS    100000
Info: OUTPUT ENERGY PRECISION 4
Info: CROSSTERM ENERGY INCLUDED IN DIHEDRAL
Info: TIMING OUTPUT STEPS    1000000
Info: PRESSURE OUTPUT STEPS  100000
Info: FIXED ATOMS ACTIVE
Info: LANGEVIN DYNAMICS ACTIVE
Info: LANGEVIN TEMPERATURE   30
Info: LANGEVIN USING BBK INTEGRATOR
Info: LANGEVIN DAMPING COEFFICIENT IS 1 INVERSE PS
Info: LANGEVIN DYNAMICS APPLIED TO HYDROGENS
Info: LANGEVIN PISTON PRESSURE CONTROL ACTIVE
Info:        TARGET PRESSURE IS 1.01325 BAR
Info:     OSCILLATION PERIOD IS 50 FS
Info:             DECAY TIME IS 25 FS
Info:     PISTON TEMPERATURE IS 300 K
Info:       PRESSURE CONTROL IS GROUP-BASED
Info:    INITIAL STRAIN RATE IS 0 0 0
Info:       CELL FLUCTUATION IS ISOTROPIC
Info: PARTICLE MESH EWALD (PME) ACTIVE
Info: PME TOLERANCE               1e-06
Info: PME EWALD COEFFICIENT       0.348832
Info: PME INTERPOLATION ORDER     4
Info: PME GRID DIMENSIONS         40 40 32
Info: PME MAXIMUM GRID SPACING    1
Info: FULL ELECTROSTATIC EVALUATION FREQUENCY      2
Info: USING VERLET I (r-RESPA) MTS SCHEME.
Info: C1 SPLITTING OF LONG RANGE ELECTROSTATICS
Info: PLACING ATOMS IN PATCHES BY HYDROGEN GROUPS
Info: RIGID BONDS TO HYDROGEN : ALL
Info:         ERROR TOLERANCE : 1e-08
Info:          MAX ITERATIONS : 100
Info: RIGID WATER USING SETTLE ALGORITHM
Info: RANDOM NUMBER SEED     1744092231
Info: USE HYDROGEN BONDS?    NO
Info: Using AMBER format force field!
Info: AMBER PARM FILE        mobley_5948990.prmtop
Info: COORDINATE PDB         mobley_5948990.pdb
Info: Exclusions will be read from PARM file!
Info: SCNB (VDW SCALING)     2
Info: USING ARITHMETIC MEAN TO COMBINE L-J SIGMA PARAMETERS
Info: BINARY COORDINATES     mobley_5948990_min.coor
Info: SUMMARY OF PARAMETERS:
Info: 8 BONDS
Info: 8 ANGLES
Info:   8 HARMONIC
Info:   0 COSINE-BASED
Info: 4 DIHEDRAL
Info: 0 IMPROPER
Info: 0 CROSSTERM
Info: 0 VDW
Info: 28 VDW_PAIRS
Info: 0 NBTHOLE_PAIRS
Info: STRUCTURE SUMMARY:
Info: 2953 ATOMS
Info: 2953 BONDS
Info: 24 ANGLES
Info: 39 DIHEDRALS
Info: 0 IMPROPERS
Info: 0 CROSSTERMS
Info: 3006 EXCLUSIONS
Info: 16 FIXED ATOMS
Info: 2943 RIGID BONDS
Info: 6 RIGID BONDS BETWEEN FIXED ATOMS
Info: 5874 DEGREES OF FREEDOM
Info: 989 HYDROGEN GROUPS
Info: 3 ATOMS IN LARGEST HYDROGEN GROUP
Info: 989 MIGRATION GROUPS
Info: 3 ATOMS IN LARGEST MIGRATION GROUP
Info: 10 HYDROGEN GROUPS WITH ALL ATOMS FIXED
Info: TOTAL MASS = 17775.8 amu
Info: TOTAL CHARGE = -0.000100024 e
Info: MASS DENSITY = 0.679084 g/cm^3
Info: ATOM DENSITY = 0.0679358 atoms/A^3
Info: ADDED 0 IMPLICIT EXCLUSIONS
Info: NONBONDED TABLE R-SQUARED SPACING: 0.0625
Info: NONBONDED TABLE SIZE: 705 POINTS
Info: REMOVING COM VELOCITY -0.0157364 -0.0641025 0.0984374
TCL: Running for 100000 steps
ETITLE: TS BOND ANGLE DIHED IMPRP ELECT VDW BOUNDARY MISC KINETIC TOTAL TEMP POTENTIAL TOTAL3 TEMPAVG PRESSURE GPRESSURE VOLUME PRESSAVG GPRESSAVG
ENERGY: 0 0.0000 0.0000 0.0000 0.0000 -13712.3848 2341.9578 0.0000 0.0000 1815.3693 -9555.0577 311.0437 -11370.4270 -9554.7042 311.0437 64.7225 99.7434 43467.5232 64.7225 99.7434
ENERGY: 100000 0.0000 0.0000 0.0000 0.0000 -14370.2598 2535.2695 0.0000 0.0000 172.5322 -11662.4581 29.5615 -11834.9903 -11661.9622 30.8987 454.0229 518.5399 28885.8912 4.7974 4.8042
TCL: Running 100000 steps at 60 kelvin.
TCL: Setting parameter langevinTemp to 60
TCL: Running for 100000 steps
ETITLE: TS BOND ANGLE DIHED IMPRP ELECT VDW BOUNDARY MISC KINETIC TOTAL TEMP POTENTIAL TOTAL3 TEMPAVG PRESSURE GPRESSURE VOLUME PRESSAVG GPRESSAVG
ENERGY: 100000 0.0000 0.0000 0.0000 0.0000 -14370.2598 2535.2695 0.0000 0.0000 172.4471 -11662.5432 29.5469 -11834.9903 -11662.2037 29.5469 465.5090 518.5749 28885.8912 465.5090 518.5749
ENERGY: 200000 0.0000 0.0000 0.0000 0.0000 -14266.0833 2479.4590 0.0000 0.0000 352.3986 -11434.2256 60.3797 -11786.6243 -11433.2158 59.9926 329.5712 398.0404 28769.4731 4.3547 4.2949
TCL: Running 100000 steps at 90 kelvin.
TCL: Setting parameter langevinTemp to 90
TCL: Running for 100000 steps
ETITLE: TS BOND ANGLE DIHED IMPRP ELECT VDW BOUNDARY MISC KINETIC TOTAL TEMP POTENTIAL TOTAL3 TEMPAVG PRESSURE GPRESSURE VOLUME PRESSAVG GPRESSAVG
ENERGY: 200000 0.0000 0.0000 0.0000 0.0000 -14266.0833 2479.4590 0.0000 0.0000 352.2212 -11434.4031 60.3493 -11786.6243 -11433.8327 60.3493 349.5025 398.2619 28769.4731 349.5025 398.2619
ENERGY: 300000 0.0000 0.0000 0.0000 0.0000 -13997.6148 2314.7594 0.0000 0.0000 527.2712 -11155.5841 90.3422 -11682.8554 -11155.1954 89.8186 -577.8665 -506.9037 28736.7747 4.0416 3.9772
TCL: Running 100000 steps at 120 kelvin.
TCL: Setting parameter langevinTemp to 120
TCL: Running for 100000 steps
ETITLE: TS BOND ANGLE DIHED IMPRP ELECT VDW BOUNDARY MISC KINETIC TOTAL TEMP POTENTIAL TOTAL3 TEMPAVG PRESSURE GPRESSURE VOLUME PRESSAVG GPRESSAVG
ENERGY: 300000 0.0000 0.0000 0.0000 0.0000 -13997.6148 2314.7594 0.0000 0.0000 527.0111 -11155.8443 90.2976 -11682.8554 -11154.7457 90.2976 -543.2086 -506.8641 28736.7747 -543.2086 -506.8641
ENERGY: 400000 0.0000 0.0000 0.0000 0.0000 -13817.1566 2273.4582 0.0000 0.0000 714.6105 -10829.0880 122.4407 -11543.6984 -10826.8375 120.0741 -264.1978 -212.6706 28750.7425 3.0544 2.9147
TCL: Running 100000 steps at 150 kelvin.
TCL: Setting parameter langevinTemp to 150
TCL: Running for 100000 steps
ETITLE: TS BOND ANGLE DIHED IMPRP ELECT VDW BOUNDARY MISC KINETIC TOTAL TEMP POTENTIAL TOTAL3 TEMPAVG PRESSURE GPRESSURE VOLUME PRESSAVG GPRESSAVG
ENERGY: 400000 0.0000 0.0000 0.0000 0.0000 -13817.1566 2273.4582 0.0000 0.0000 714.2565 -10829.4419 122.3801 -11543.6984 -10827.8889 122.3801 -274.0880 -212.3617 28750.7425 -274.0880 -212.3617
ENERGY: 500000 0.0000 0.0000 0.0000 0.0000 -13687.5664 2310.5133 0.0000 0.0000 869.0068 -10508.0463 148.8948 -11377.0530 -10505.4209 150.1037 290.0307 288.8826 29234.9911 3.6332 3.5402
TCL: Running 100000 steps at 180 kelvin.
TCL: Setting parameter langevinTemp to 180
TCL: Running for 100000 steps
ETITLE: TS BOND ANGLE DIHED IMPRP ELECT VDW BOUNDARY MISC KINETIC TOTAL TEMP POTENTIAL TOTAL3 TEMPAVG PRESSURE GPRESSURE VOLUME PRESSAVG GPRESSAVG
ENERGY: 500000 0.0000 0.0000 0.0000 0.0000 -13687.5664 2310.5133 0.0000 0.0000 868.5744 -10508.4787 148.8207 -11377.0530 -10506.5363 148.8207 256.0350 289.0810 29234.9911 256.0350 289.0810
ENERGY: 600000 0.0000 0.0000 0.0000 0.0000 -13118.3632 2012.3461 0.0000 0.0000 1084.3615 -10021.6556 185.7935 -11106.0171 -10019.8108 179.5306 -1028.1767 -950.4227 29185.3214 3.4537 3.4487
TCL: Running 100000 steps at 210 kelvin.
TCL: Setting parameter langevinTemp to 210
TCL: Running for 100000 steps
ETITLE: TS BOND ANGLE DIHED IMPRP ELECT VDW BOUNDARY MISC KINETIC TOTAL TEMP POTENTIAL TOTAL3 TEMPAVG PRESSURE GPRESSURE VOLUME PRESSAVG GPRESSAVG
ENERGY: 600000 0.0000 0.0000 0.0000 0.0000 -13118.3632 2012.3461 0.0000 0.0000 1083.8136 -10022.2035 185.6996 -11106.0171 -10020.0208 185.6996 -1020.0058 -951.0673 29185.3214 -1020.0058 -951.0673
ENERGY: 700000 0.0000 0.0000 0.0000 0.0000 -12552.5826 1945.4144 0.0000 0.0000 1172.4951 -9434.6731 200.8942 -10607.1682 -9431.2036 210.2934 259.1849 351.5999 28934.1575 4.1165 4.1036
TCL: Running 100000 steps at 240 kelvin.
TCL: Setting parameter langevinTemp to 240
TCL: Running for 100000 steps
ETITLE: TS BOND ANGLE DIHED IMPRP ELECT VDW BOUNDARY MISC KINETIC TOTAL TEMP POTENTIAL TOTAL3 TEMPAVG PRESSURE GPRESSURE VOLUME PRESSAVG GPRESSAVG
ENERGY: 700000 0.0000 0.0000 0.0000 0.0000 -12552.5826 1945.4144 0.0000 0.0000 1171.9047 -9435.2635 200.7931 -10607.1682 -9433.1903 200.7931 276.3278 352.1686 28934.1575 276.3278 352.1686
ENERGY: 800000 0.0000 0.0000 0.0000 0.0000 -12010.9007 1749.5876 0.0000 0.0000 1412.6990 -8848.6142 242.0506 -10261.3132 -8844.3911 239.9323 30.0593 79.5293 29094.5977 2.9137 3.0529
TCL: Running 100000 steps at 270 kelvin.
TCL: Setting parameter langevinTemp to 270
TCL: Running for 100000 steps
ETITLE: TS BOND ANGLE DIHED IMPRP ELECT VDW BOUNDARY MISC KINETIC TOTAL TEMP POTENTIAL TOTAL3 TEMPAVG PRESSURE GPRESSURE VOLUME PRESSAVG GPRESSAVG
ENERGY: 800000 0.0000 0.0000 0.0000 0.0000 -12010.9007 1749.5876 0.0000 0.0000 1412.0030 -8849.3101 241.9313 -10261.3132 -8846.7846 241.9313 -16.8418 77.9124 29094.5977 -16.8418 77.9124
ENERGY: 900000 0.0000 0.0000 0.0000 0.0000 -11194.3282 1503.4869 0.0000 0.0000 1584.7150 -8106.1263 271.5236 -9690.8413 -8104.3992 269.9372 -165.5389 -74.8769 29581.0571 3.3060 3.4785
TCL: Running 1000000 steps at 300 kelvin.
TCL: Setting parameter langevinTemp to 300
TCL: Running for 1000000 steps
ETITLE: TS BOND ANGLE DIHED IMPRP ELECT VDW BOUNDARY MISC KINETIC TOTAL TEMP POTENTIAL TOTAL3 TEMPAVG PRESSURE GPRESSURE VOLUME PRESSAVG GPRESSAVG
ENERGY: 900000 0.0000 0.0000 0.0000 0.0000 -11194.3282 1503.4869 0.0000 0.0000 1583.9419 -8106.8994 271.3912 -9690.8413 -8104.0995 271.3912 -167.5387 -76.6393 29581.0571 -167.5387 -76.6393
ENERGY: 1100000 0.0000 0.0000 0.0000 0.0000 -10880.7928 1489.1787 0.0000 0.0000 1773.1815 -7618.4325 303.8153 -9391.6141 -7614.2954 299.8181 317.6675 453.2493 30240.9951 3.9453 3.6275
ENERGY: 1300000 0.0000 0.0000 0.0000 0.0000 -10745.6752 1426.0287 0.0000 0.0000 1746.3319 -7573.3146 299.2149 -9319.6465 -7572.1475 300.0851 62.0696 142.9820 30306.4500 2.0497 2.1962
ENERGY: 1500000 0.0000 0.0000 0.0000 0.0000 -10707.4255 1343.5987 0.0000 0.0000 1771.7462 -7592.0806 303.5694 -9363.8268 -7588.0100 300.5974 -583.1318 -465.6370 30269.2460 4.1731 4.2319
ENERGY: 1700000 0.0000 0.0000 0.0000 0.0000 -10914.9831 1487.0135 0.0000 0.0000 1723.8697 -7704.0998 295.3663 -9427.9696 -7701.6792 300.3442 94.3382 238.6340 30213.3683 1.7357 1.6523
ENERGY: 1900000 0.0000 0.0000 0.0000 0.0000 -10802.2248 1453.8502 0.0000 0.0000 1747.9323 -7600.4423 299.4891 -9348.3746 -7598.2524 299.5092 250.5853 337.8758 30332.0901 2.7174 2.7476
TCL: Exiting due to exit command.
