Info: SIMULATION PARAMETERS:
Info: TIMESTEP               2
Info: NUMBER OF STEPS        0
Info: STEPS PER CYCLE        10
Info: PERIODIC CELL BASIS 1  37.133 0 0
Info: PERIODIC CELL BASIS 2  0 35.411 0
Info: PERIODIC CELL BASIS 3  0 0 33.27
Info: PERIODIC CELL CENTER   0 0 0
Info: WRAPPING WATERS AROUND PERIODIC BOUNDARIES ON OUTPUT.
Info: WRAPPING ALL CLUSTERS AROUND PERIODIC BOUNDARIES ON OUTPUT.
Info: FIRST LDB TIMESTEP     50
Info: LAST LDB TIMESTEP     -1
Info: HOM BACKGROUND SCALING 1
Info: PME BACKGROUND SCALING 1
Info: MIN ATOMS PER PATCH    40
Info: EMPTY PATCH LOAD       40 ATOMS
Info: INITIAL TEMPERATURE    300
Info: CENTER OF MASS MOVING INITIALLY? NO
Info: DIELECTRIC             1
Info: EXCLUDE                SCALED ONE-FOUR
Info: 1-4 ELECTROSTATICS SCALED BY 0.833333
Info: MODIFIED 1-4 VDW PARAMETERS WILL BE USED
Info: DCD FILENAME           mobley_5094777_equil.dcd
Info: DCD FREQUENCY          100000
Info: DCD FIRST STEP         100000
Info: DCD FILE WILL CONTAIN UNIT CELL DATA
Info: XST FILENAME           mobley_5094777_equil.xst
Info: XST FREQUENCY          100000
Info: NO VELOCITY DCD OUTPUT
Info: NO FORCE DCD OUTPUT
Info: OUTPUT FILENAME        mobley_5094777_equil
Info: BINARY OUTPUT FILES WILL BE USED
Info: RESTART FILENAME       mobley_5094777_equil.restart
Info: RESTART FREQUENCY      100000
Info: BINARY RESTART FILES WILL BE USED
Info: CUTOFF                 9
Info: PAIRLIST DISTANCE      11
Info: PAIRLIST SHRINK RATE   0.01
Info: PAIRLIST GROW RATE     0.01
Info: PAIRLIST TRIGGER       0.3
Info: PAIRLISTS PER CYCLE    2
Info: PAIRLISTS ENABLED
Info: MARGIN                 8
Info: HYDROGEN GROUP CUTOFF  2.5
Info: PATCH DIMENSION        21.5
Info: ENERGY OUTPUT STEPS    100000
Info: ENERGY EVALUATION STEPS    100000
Info: OUTPUT ENERGY PRECISION 4
Info: CROSSTERM ENERGY INCLUDED IN DIHEDRAL
Info: TIMING OUTPUT STEPS    1000000
Info: PRESSURE OUTPUT STEPS  100000
Info: FIXED ATOMS ACTIVE
Info: LANGEVIN DYNAMICS ACTIVE
Info: LANGEVIN TEMPERATURE   30
Info: LANGEVIN USING BBK INTEGRATOR
Info: LANGEVIN DAMPING COEFFICIENT IS 1 INVERSE PS
Info: LANGEVIN DYNAMICS APPLIED TO HYDROGENS
Info: LANGEVIN PISTON PRESSURE CONTROL ACTIVE
Info:        TARGET PRESSURE IS 1.01325 BAR
Info:     OSCILLATION PERIOD IS 50 FS
Info:             DECAY TIME IS 25 FS
Info:     PISTON TEMPERATURE IS 300 K
Info:       PRESSURE CONTROL IS GROUP-BASED
Info:    INITIAL STRAIN RATE IS 0 0 0
Info:       CELL FLUCTUATION IS ISOTROPIC
Info: PARTICLE MESH EWALD (PME) ACTIVE
Info: PME TOLERANCE               1e-06
Info: PME EWALD COEFFICIENT       0.348832
Info: PME INTERPOLATION ORDER     4
Info: PME GRID DIMENSIONS         40 36 36
Info: PME MAXIMUM GRID SPACING    1
Info: FULL ELECTROSTATIC EVALUATION FREQUENCY      2
Info: USING VERLET I (r-RESPA) MTS SCHEME.
Info: C1 SPLITTING OF LONG RANGE ELECTROSTATICS
Info: PLACING ATOMS IN PATCHES BY HYDROGEN GROUPS
Info: RIGID BONDS TO HYDROGEN : ALL
Info:         ERROR TOLERANCE : 1e-08
Info:          MAX ITERATIONS : 100
Info: RIGID WATER USING SETTLE ALGORITHM
Info: RANDOM NUMBER SEED     1743764020
Info: USE HYDROGEN BONDS?    NO
Info: Using AMBER format force field!
Info: AMBER PARM FILE        mobley_5094777.prmtop
Info: COORDINATE PDB         mobley_5094777.pdb
Info: Exclusions will be read from PARM file!
Info: SCNB (VDW SCALING)     2
Info: USING ARITHMETIC MEAN TO COMBINE L-J SIGMA PARAMETERS
Info: BINARY COORDINATES     mobley_5094777_min.coor
Info: SUMMARY OF PARAMETERS:
Info: 7 BONDS
Info: 8 ANGLES
Info: 6 DIHEDRAL
Info: 0 IMPROPER
Info: 0 CROSSTERM
Info: 0 VDW
Info: 21 VDW_PAIRS
Info: 0 NBTHOLE_PAIRS
Info: STRUCTURE SUMMARY:
Info: 2923 ATOMS
Info: 2924 BONDS
Info: 36 ANGLES
Info: 60 DIHEDRALS
Info: 0 IMPROPERS
Info: 0 CROSSTERMS
Info: 3006 EXCLUSIONS
Info: 19 FIXED ATOMS
Info: 2914 RIGID BONDS
Info: 10 RIGID BONDS BETWEEN FIXED ATOMS
Info: 5808 DEGREES OF FREEDOM
Info: 977 HYDROGEN GROUPS
Info: 3 ATOMS IN LARGEST HYDROGEN GROUP
Info: 977 MIGRATION GROUPS
Info: 3 ATOMS IN LARGEST MIGRATION GROUP
Info: 9 HYDROGEN GROUPS WITH ALL ATOMS FIXED
Info: TOTAL MASS = 17557.7 amu
Info: TOTAL CHARGE = 0.000100002 e
Info: MASS DENSITY = 0.666461 g/cm^3
Info: ATOM DENSITY = 0.0668156 atoms/A^3
Info: ADDED 0 IMPLICIT EXCLUSIONS
Info: NONBONDED TABLE R-SQUARED SPACING: 0.0625
Info: NONBONDED TABLE SIZE: 705 POINTS
Info: REMOVING COM VELOCITY 0.152686 -0.0400595 0.107534
TCL: Running for 100000 steps
ETITLE: TS BOND ANGLE DIHED IMPRP ELECT VDW BOUNDARY MISC KINETIC TOTAL TEMP POTENTIAL TOTAL3 TEMPAVG PRESSURE GPRESSURE VOLUME PRESSAVG GPRESSAVG
ENERGY: 0 0.0000 0.0000 0.0000 0.0000 -13540.0056 2353.1966 0.0000 0.0000 1699.9314 -9486.8776 294.5745 -11186.8091 -9486.5259 294.5745 235.2532 271.0186 43747.2774 235.2532 271.0186
ENERGY: 100000 0.0000 0.0000 0.0000 0.0000 -14104.9095 2498.0105 0.0000 0.0000 173.6495 -11433.2494 30.0911 -11606.8990 -11432.8636 30.9185 285.8148 344.0722 29463.3230 3.5599 3.5001
TCL: Running 100000 steps at 60 kelvin.
TCL: Setting parameter langevinTemp to 60
TCL: Running for 100000 steps
ETITLE: TS BOND ANGLE DIHED IMPRP ELECT VDW BOUNDARY MISC KINETIC TOTAL TEMP POTENTIAL TOTAL3 TEMPAVG PRESSURE GPRESSURE VOLUME PRESSAVG GPRESSAVG
ENERGY: 100000 0.0000 0.0000 0.0000 0.0000 -14104.9095 2498.0105 0.0000 0.0000 173.5617 -11433.3373 30.0758 -11606.8990 -11432.9995 30.0758 288.2497 343.9689 29463.3230 288.2497 343.9689
ENERGY: 200000 0.0000 0.0000 0.0000 0.0000 -14025.8461 2489.8093 0.0000 0.0000 336.5356 -11199.5012 58.3170 -11536.0368 -11198.5459 60.0219 603.9793 648.3487 29121.9503 2.7469 2.7603
TCL: Running 100000 steps at 90 kelvin.
TCL: Setting parameter langevinTemp to 90
TCL: Running for 100000 steps
ETITLE: TS BOND ANGLE DIHED IMPRP ELECT VDW BOUNDARY MISC KINETIC TOTAL TEMP POTENTIAL TOTAL3 TEMPAVG PRESSURE GPRESSURE VOLUME PRESSAVG GPRESSAVG
ENERGY: 200000 0.0000 0.0000 0.0000 0.0000 -14025.8461 2489.8093 0.0000 0.0000 336.3644 -11199.6725 58.2873 -11536.0368 -11198.9633 58.2873 596.1646 648.6208 29121.9503 596.1646 648.6208
ENERGY: 300000 0.0000 0.0000 0.0000 0.0000 -13949.0219 2507.6124 0.0000 0.0000 510.3054 -10931.1040 88.4288 -11441.4094 -10930.2422 89.9966 979.5851 1012.8849 29168.4520 3.6712 3.6468
TCL: Running 100000 steps at 120 kelvin.
TCL: Setting parameter langevinTemp to 120
TCL: Running for 100000 steps
ETITLE: TS BOND ANGLE DIHED IMPRP ELECT VDW BOUNDARY MISC KINETIC TOTAL TEMP POTENTIAL TOTAL3 TEMPAVG PRESSURE GPRESSURE VOLUME PRESSAVG GPRESSAVG
ENERGY: 300000 0.0000 0.0000 0.0000 0.0000 -13949.0219 2507.6124 0.0000 0.0000 510.0364 -10931.3730 88.3822 -11441.4094 -10930.3620 88.3822 965.9693 1011.9086 29168.4520 965.9693 1011.9086
ENERGY: 400000 0.0000 0.0000 0.0000 0.0000 -13671.7869 2378.4416 0.0000 0.0000 679.1412 -10614.2041 117.6857 -11293.3453 -10612.4831 120.0475 758.3122 823.7890 28598.1918 3.3928 3.2550
TCL: Running 100000 steps at 150 kelvin.
TCL: Setting parameter langevinTemp to 150
TCL: Running for 100000 steps
ETITLE: TS BOND ANGLE DIHED IMPRP ELECT VDW BOUNDARY MISC KINETIC TOTAL TEMP POTENTIAL TOTAL3 TEMPAVG PRESSURE GPRESSURE VOLUME PRESSAVG GPRESSAVG
ENERGY: 400000 0.0000 0.0000 0.0000 0.0000 -13671.7869 2378.4416 0.0000 0.0000 678.7725 -10614.5728 117.6219 -11293.3453 -10613.4535 117.6219 758.1649 823.3987 28598.1918 758.1649 823.3987
ENERGY: 500000 0.0000 0.0000 0.0000 0.0000 -13346.1428 2194.7553 0.0000 0.0000 870.5890 -10280.7986 150.8610 -11151.3875 -10277.8272 150.4484 -250.5636 -170.7193 28712.8471 4.9116 4.7289
TCL: Running 100000 steps at 180 kelvin.
TCL: Setting parameter langevinTemp to 180
TCL: Running for 100000 steps
ETITLE: TS BOND ANGLE DIHED IMPRP ELECT VDW BOUNDARY MISC KINETIC TOTAL TEMP POTENTIAL TOTAL3 TEMPAVG PRESSURE GPRESSURE VOLUME PRESSAVG GPRESSAVG
ENERGY: 500000 0.0000 0.0000 0.0000 0.0000 -13346.1428 2194.7553 0.0000 0.0000 870.1675 -10281.2200 150.7879 -11151.3875 -10279.3614 150.7879 -223.5986 -169.3534 28712.8471 -223.5986 -169.3534
ENERGY: 600000 0.0000 0.0000 0.0000 0.0000 -12962.8198 2091.3109 0.0000 0.0000 1071.8572 -9799.6517 185.7380 -10871.5088 -9796.8089 179.8435 -45.5732 19.1531 28669.0002 2.4430 2.2752
TCL: Running 100000 steps at 210 kelvin.
TCL: Setting parameter langevinTemp to 210
TCL: Running for 100000 steps
ETITLE: TS BOND ANGLE DIHED IMPRP ELECT VDW BOUNDARY MISC KINETIC TOTAL TEMP POTENTIAL TOTAL3 TEMPAVG PRESSURE GPRESSURE VOLUME PRESSAVG GPRESSAVG
ENERGY: 600000 0.0000 0.0000 0.0000 0.0000 -12962.8198 2091.3109 0.0000 0.0000 1071.3388 -9800.1701 185.6481 -10871.5088 -9798.2285 185.6481 -52.6645 20.0119 28669.0002 -52.6645 20.0119
ENERGY: 700000 0.0000 0.0000 0.0000 0.0000 -12255.3164 1838.9774 0.0000 0.0000 1247.4615 -9168.8774 216.1678 -10416.3390 -9165.8552 209.7415 -206.5982 -169.6981 28442.4131 4.3460 4.3504
TCL: Running 100000 steps at 240 kelvin.
TCL: Setting parameter langevinTemp to 240
TCL: Running for 100000 steps
ETITLE: TS BOND ANGLE DIHED IMPRP ELECT VDW BOUNDARY MISC KINETIC TOTAL TEMP POTENTIAL TOTAL3 TEMPAVG PRESSURE GPRESSURE VOLUME PRESSAVG GPRESSAVG
ENERGY: 700000 0.0000 0.0000 0.0000 0.0000 -12255.3164 1838.9774 0.0000 0.0000 1246.8453 -9169.4937 216.0610 -10416.3390 -9167.5939 216.0610 -236.2447 -170.5037 28442.4131 -236.2447 -170.5037
ENERGY: 800000 0.0000 0.0000 0.0000 0.0000 -11571.4104 1620.2953 0.0000 0.0000 1400.5766 -8550.5384 242.7005 -9951.1150 -8547.3003 239.8079 -684.0598 -559.4888 28879.9480 4.5604 4.5063
TCL: Running 100000 steps at 270 kelvin.
TCL: Setting parameter langevinTemp to 270
TCL: Running for 100000 steps
ETITLE: TS BOND ANGLE DIHED IMPRP ELECT VDW BOUNDARY MISC KINETIC TOTAL TEMP POTENTIAL TOTAL3 TEMPAVG PRESSURE GPRESSURE VOLUME PRESSAVG GPRESSAVG
ENERGY: 800000 0.0000 0.0000 0.0000 0.0000 -11571.4104 1620.2953 0.0000 0.0000 1399.8749 -8551.2402 242.5789 -9951.1150 -8548.8066 242.5789 -650.3147 -559.4352 28879.9480 -650.3147 -559.4352
ENERGY: 900000 0.0000 0.0000 0.0000 0.0000 -11096.4114 1527.2382 0.0000 0.0000 1511.7020 -8057.4712 261.9570 -9569.1732 -8053.6718 269.6421 -138.3921 -63.2527 29225.6250 2.7014 2.6914
TCL: Running 1000000 steps at 300 kelvin.
TCL: Setting parameter langevinTemp to 300
TCL: Running for 1000000 steps
ETITLE: TS BOND ANGLE DIHED IMPRP ELECT VDW BOUNDARY MISC KINETIC TOTAL TEMP POTENTIAL TOTAL3 TEMPAVG PRESSURE GPRESSURE VOLUME PRESSAVG GPRESSAVG
ENERGY: 900000 0.0000 0.0000 0.0000 0.0000 -11096.4114 1527.2382 0.0000 0.0000 1510.9296 -8058.2436 261.8231 -9569.1732 -8055.9036 261.8231 -137.6789 -63.5941 29225.6250 -137.6789 -63.5941
ENERGY: 1100000 0.0000 0.0000 0.0000 0.0000 -10674.2728 1437.4768 0.0000 0.0000 1750.7976 -7485.9984 303.3889 -9236.7960 -7483.1756 301.2143 -98.4021 -59.4352 30265.1092 3.7958 3.9358
ENERGY: 1300000 0.0000 0.0000 0.0000 0.0000 -10533.9790 1414.7130 0.0000 0.0000 1746.7691 -7372.4969 302.6908 -9119.2660 -7368.8449 299.5481 147.1549 236.0530 30061.1882 2.8205 2.6821
ENERGY: 1500000 0.0000 0.0000 0.0000 0.0000 -10498.0172 1368.2241 0.0000 0.0000 1702.6372 -7427.1559 295.0434 -9129.7931 -7424.5989 300.6690 -362.6520 -215.1765 30154.0493 3.7922 3.3964
ENERGY: 1700000 0.0000 0.0000 0.0000 0.0000 -10569.8201 1435.6778 0.0000 0.0000 1779.3217 -7354.8207 308.3317 -9134.1423 -7352.5575 300.8051 243.8608 353.0355 30090.4352 1.9563 2.0963
ENERGY: 1900000 0.0000 0.0000 0.0000 0.0000 -10511.5210 1358.6667 0.0000 0.0000 1762.3526 -7390.5017 305.3912 -9152.8543 -7387.4693 300.1364 -321.1864 -196.5673 30117.9020 2.9236 2.9628
TCL: Exiting due to exit command.
