Info: SIMULATION PARAMETERS:
Info: TIMESTEP               2
Info: NUMBER OF STEPS        0
Info: STEPS PER CYCLE        10
Info: PERIODIC CELL BASIS 1  37.968 0 0
Info: PERIODIC CELL BASIS 2  0 36.451 0
Info: PERIODIC CELL BASIS 3  0 0 31.561
Info: PERIODIC CELL CENTER   0 0 0
Info: WRAPPING WATERS AROUND PERIODIC BOUNDARIES ON OUTPUT.
Info: WRAPPING ALL CLUSTERS AROUND PERIODIC BOUNDARIES ON OUTPUT.
Info: FIRST LDB TIMESTEP     50
Info: LAST LDB TIMESTEP     -1
Info: HOM BACKGROUND SCALING 1
Info: PME BACKGROUND SCALING 1
Info: MIN ATOMS PER PATCH    40
Info: EMPTY PATCH LOAD       40 ATOMS
Info: INITIAL TEMPERATURE    300
Info: CENTER OF MASS MOVING INITIALLY? NO
Info: DIELECTRIC             1
Info: EXCLUDE                SCALED ONE-FOUR
Info: 1-4 ELECTROSTATICS SCALED BY 0.833333
Info: MODIFIED 1-4 VDW PARAMETERS WILL BE USED
Info: DCD FILENAME           mobley_5665561_equil.dcd
Info: DCD FREQUENCY          100000
Info: DCD FIRST STEP         100000
Info: DCD FILE WILL CONTAIN UNIT CELL DATA
Info: XST FILENAME           mobley_5665561_equil.xst
Info: XST FREQUENCY          100000
Info: NO VELOCITY DCD OUTPUT
Info: NO FORCE DCD OUTPUT
Info: OUTPUT FILENAME        mobley_5665561_equil
Info: BINARY OUTPUT FILES WILL BE USED
Info: RESTART FILENAME       mobley_5665561_equil.restart
Info: RESTART FREQUENCY      100000
Info: BINARY RESTART FILES WILL BE USED
Info: CUTOFF                 9
Info: PAIRLIST DISTANCE      11
Info: PAIRLIST SHRINK RATE   0.01
Info: PAIRLIST GROW RATE     0.01
Info: PAIRLIST TRIGGER       0.3
Info: PAIRLISTS PER CYCLE    2
Info: PAIRLISTS ENABLED
Info: MARGIN                 8
Info: HYDROGEN GROUP CUTOFF  2.5
Info: PATCH DIMENSION        21.5
Info: ENERGY OUTPUT STEPS    100000
Info: ENERGY EVALUATION STEPS    100000
Info: OUTPUT ENERGY PRECISION 4
Info: CROSSTERM ENERGY INCLUDED IN DIHEDRAL
Info: TIMING OUTPUT STEPS    1000000
Info: PRESSURE OUTPUT STEPS  100000
Info: FIXED ATOMS ACTIVE
Info: LANGEVIN DYNAMICS ACTIVE
Info: LANGEVIN TEMPERATURE   30
Info: LANGEVIN USING BBK INTEGRATOR
Info: LANGEVIN DAMPING COEFFICIENT IS 1 INVERSE PS
Info: LANGEVIN DYNAMICS APPLIED TO HYDROGENS
Info: LANGEVIN PISTON PRESSURE CONTROL ACTIVE
Info:        TARGET PRESSURE IS 1.01325 BAR
Info:     OSCILLATION PERIOD IS 50 FS
Info:             DECAY TIME IS 25 FS
Info:     PISTON TEMPERATURE IS 300 K
Info:       PRESSURE CONTROL IS GROUP-BASED
Info:    INITIAL STRAIN RATE IS 0 0 0
Info:       CELL FLUCTUATION IS ISOTROPIC
Info: PARTICLE MESH EWALD (PME) ACTIVE
Info: PME TOLERANCE               1e-06
Info: PME EWALD COEFFICIENT       0.348832
Info: PME INTERPOLATION ORDER     4
Info: PME GRID DIMENSIONS         40 40 32
Info: PME MAXIMUM GRID SPACING    1
Info: FULL ELECTROSTATIC EVALUATION FREQUENCY      2
Info: USING VERLET I (r-RESPA) MTS SCHEME.
Info: C1 SPLITTING OF LONG RANGE ELECTROSTATICS
Info: PLACING ATOMS IN PATCHES BY HYDROGEN GROUPS
Info: RIGID BONDS TO HYDROGEN : ALL
Info:         ERROR TOLERANCE : 1e-08
Info:          MAX ITERATIONS : 100
Info: RIGID WATER USING SETTLE ALGORITHM
Info: RANDOM NUMBER SEED     1743765089
Info: USE HYDROGEN BONDS?    NO
Info: Using AMBER format force field!
Info: AMBER PARM FILE        mobley_5665561.prmtop
Info: COORDINATE PDB         mobley_5665561.pdb
Info: Exclusions will be read from PARM file!
Info: SCNB (VDW SCALING)     2
Info: USING ARITHMETIC MEAN TO COMBINE L-J SIGMA PARAMETERS
Info: BINARY COORDINATES     mobley_5665561_min.coor
Info: SUMMARY OF PARAMETERS:
Info: 6 BONDS
Info: 5 ANGLES
Info:   5 HARMONIC
Info:   0 COSINE-BASED
Info: 3 DIHEDRAL
Info: 0 IMPROPER
Info: 0 CROSSTERM
Info: 0 VDW
Info: 21 VDW_PAIRS
Info: 0 NBTHOLE_PAIRS
Info: STRUCTURE SUMMARY:
Info: 2973 ATOMS
Info: 2974 BONDS
Info: 42 ANGLES
Info: 66 DIHEDRALS
Info: 0 IMPROPERS
Info: 0 CROSSTERMS
Info: 3066 EXCLUSIONS
Info: 24 FIXED ATOMS
Info: 2961 RIGID BONDS
Info: 12 RIGID BONDS BETWEEN FIXED ATOMS
Info: 5898 DEGREES OF FREEDOM
Info: 995 HYDROGEN GROUPS
Info: 4 ATOMS IN LARGEST HYDROGEN GROUP
Info: 995 MIGRATION GROUPS
Info: 4 ATOMS IN LARGEST MIGRATION GROUP
Info: 12 HYDROGEN GROUPS WITH ALL ATOMS FIXED
Info: TOTAL MASS = 17865.9 amu
Info: TOTAL CHARGE = -1.86265e-08 e
Info: MASS DENSITY = 0.679215 g/cm^3
Info: ATOM DENSITY = 0.0680639 atoms/A^3
Info: ADDED 0 IMPLICIT EXCLUSIONS
Info: NONBONDED TABLE R-SQUARED SPACING: 0.0625
Info: NONBONDED TABLE SIZE: 705 POINTS
Info: REMOVING COM VELOCITY 0.123603 0.0806291 0.00705351
TCL: Running for 100000 steps
ETITLE: TS BOND ANGLE DIHED IMPRP ELECT VDW BOUNDARY MISC KINETIC TOTAL TEMP POTENTIAL TOTAL3 TEMPAVG PRESSURE GPRESSURE VOLUME PRESSAVG GPRESSAVG
ENERGY: 0 0.0000 0.0000 0.0000 0.0000 -13770.4325 2397.0164 0.0000 0.0000 1748.7928 -9624.6232 298.4173 -11373.4160 -9624.2856 298.4173 281.0793 308.9231 43679.5267 281.0793 308.9231
ENERGY: 100000 0.0000 0.0000 0.0000 0.0000 -14344.7921 2486.0244 0.0000 0.0000 178.5368 -11680.2309 30.4659 -11858.7678 -11679.5631 30.8540 -117.5992 -76.3385 28958.3095 3.6698 3.6777
TCL: Running 100000 steps at 60 kelvin.
TCL: Setting parameter langevinTemp to 60
TCL: Running for 100000 steps
ETITLE: TS BOND ANGLE DIHED IMPRP ELECT VDW BOUNDARY MISC KINETIC TOTAL TEMP POTENTIAL TOTAL3 TEMPAVG PRESSURE GPRESSURE VOLUME PRESSAVG GPRESSAVG
ENERGY: 100000 0.0000 0.0000 0.0000 0.0000 -14344.7921 2486.0244 0.0000 0.0000 178.4515 -11680.3163 30.4513 -11858.7678 -11679.8793 30.4513 -109.7482 -76.1766 28958.3095 -109.7482 -76.1766
ENERGY: 200000 0.0000 0.0000 0.0000 0.0000 -14261.2103 2506.7357 0.0000 0.0000 356.6464 -11397.8283 60.8588 -11754.4747 -11396.8239 59.9733 483.1480 523.4682 28997.5109 1.9812 1.9500
TCL: Running 100000 steps at 90 kelvin.
TCL: Setting parameter langevinTemp to 90
TCL: Running for 100000 steps
ETITLE: TS BOND ANGLE DIHED IMPRP ELECT VDW BOUNDARY MISC KINETIC TOTAL TEMP POTENTIAL TOTAL3 TEMPAVG PRESSURE GPRESSURE VOLUME PRESSAVG GPRESSAVG
ENERGY: 200000 0.0000 0.0000 0.0000 0.0000 -14261.2103 2506.7357 0.0000 0.0000 356.4736 -11398.0011 60.8293 -11754.4747 -11397.2925 60.8293 466.6530 523.4416 28997.5109 466.6530 523.4416
ENERGY: 300000 0.0000 0.0000 0.0000 0.0000 -13942.9255 2306.0261 0.0000 0.0000 534.1485 -11102.7509 91.1481 -11636.8993 -11101.0213 90.0494 -859.5844 -826.5540 29344.6322 3.6566 3.7568
TCL: Running 100000 steps at 120 kelvin.
TCL: Setting parameter langevinTemp to 120
TCL: Running for 100000 steps
ETITLE: TS BOND ANGLE DIHED IMPRP ELECT VDW BOUNDARY MISC KINETIC TOTAL TEMP POTENTIAL TOTAL3 TEMPAVG PRESSURE GPRESSURE VOLUME PRESSAVG GPRESSAVG
ENERGY: 300000 0.0000 0.0000 0.0000 0.0000 -13942.9255 2306.0261 0.0000 0.0000 533.8778 -11103.0215 91.1019 -11636.8993 -11101.5881 91.1019 -875.3154 -826.7681 29344.6322 -875.3154 -826.7681
ENERGY: 400000 0.0000 0.0000 0.0000 0.0000 -13758.1249 2254.2357 0.0000 0.0000 692.0316 -10811.8576 118.0896 -11503.8892 -10810.6783 119.8700 -664.7427 -636.6071 29331.3417 4.5243 4.3545
TCL: Running 100000 steps at 150 kelvin.
TCL: Setting parameter langevinTemp to 150
TCL: Running for 100000 steps
ETITLE: TS BOND ANGLE DIHED IMPRP ELECT VDW BOUNDARY MISC KINETIC TOTAL TEMP POTENTIAL TOTAL3 TEMPAVG PRESSURE GPRESSURE VOLUME PRESSAVG GPRESSAVG
ENERGY: 400000 0.0000 0.0000 0.0000 0.0000 -13758.1249 2254.2357 0.0000 0.0000 691.6814 -10812.2079 118.0298 -11503.8892 -10810.7618 118.0298 -686.1001 -637.2827 29331.3417 -686.1001 -637.2827
ENERGY: 500000 0.0000 0.0000 0.0000 0.0000 -13538.5024 2174.2975 0.0000 0.0000 894.4093 -10469.7956 152.6237 -11364.2049 -10467.6148 149.9532 -586.1149 -535.6380 28979.2117 3.7849 3.8205
TCL: Running 100000 steps at 180 kelvin.
TCL: Setting parameter langevinTemp to 180
TCL: Running for 100000 steps
ETITLE: TS BOND ANGLE DIHED IMPRP ELECT VDW BOUNDARY MISC KINETIC TOTAL TEMP POTENTIAL TOTAL3 TEMPAVG PRESSURE GPRESSURE VOLUME PRESSAVG GPRESSAVG
ENERGY: 500000 0.0000 0.0000 0.0000 0.0000 -13538.5024 2174.2975 0.0000 0.0000 893.9628 -10470.2421 152.5475 -11364.2049 -10468.3256 152.5475 -596.3854 -536.8195 28979.2117 -596.3854 -536.8195
ENERGY: 600000 0.0000 0.0000 0.0000 0.0000 -13061.0085 2022.3756 0.0000 0.0000 1075.4218 -9963.2111 183.5120 -11038.6329 -9960.4713 179.7514 -775.9970 -700.6934 29199.7748 4.5542 4.5476
TCL: Running 100000 steps at 210 kelvin.
TCL: Setting parameter langevinTemp to 210
TCL: Running for 100000 steps
ETITLE: TS BOND ANGLE DIHED IMPRP ELECT VDW BOUNDARY MISC KINETIC TOTAL TEMP POTENTIAL TOTAL3 TEMPAVG PRESSURE GPRESSURE VOLUME PRESSAVG GPRESSAVG
ENERGY: 600000 0.0000 0.0000 0.0000 0.0000 -13061.0085 2022.3756 0.0000 0.0000 1074.8819 -9963.7510 183.4199 -11038.6329 -9961.5475 183.4199 -761.6322 -700.0665 29199.7748 -761.6322 -700.0665
ENERGY: 700000 0.0000 0.0000 0.0000 0.0000 -12464.6046 1920.0611 0.0000 0.0000 1213.4244 -9331.1191 207.0610 -10544.5435 -9328.5108 210.0955 413.5290 473.4925 28758.6495 1.7207 1.7827
TCL: Running 100000 steps at 240 kelvin.
TCL: Setting parameter langevinTemp to 240
TCL: Running for 100000 steps
ETITLE: TS BOND ANGLE DIHED IMPRP ELECT VDW BOUNDARY MISC KINETIC TOTAL TEMP POTENTIAL TOTAL3 TEMPAVG PRESSURE GPRESSURE VOLUME PRESSAVG GPRESSAVG
ENERGY: 700000 0.0000 0.0000 0.0000 0.0000 -12464.6046 1920.0611 0.0000 0.0000 1212.7871 -9331.7564 206.9523 -10544.5435 -9329.8397 206.9523 393.1825 473.1655 28758.6495 393.1825 473.1655
ENERGY: 800000 0.0000 0.0000 0.0000 0.0000 -11858.2880 1706.3215 0.0000 0.0000 1327.3100 -8824.6565 226.4947 -10151.9665 -8821.7053 239.9298 -150.4055 -28.8076 29180.0277 3.2918 3.3617
TCL: Running 100000 steps at 270 kelvin.
TCL: Setting parameter langevinTemp to 270
TCL: Running for 100000 steps
ETITLE: TS BOND ANGLE DIHED IMPRP ELECT VDW BOUNDARY MISC KINETIC TOTAL TEMP POTENTIAL TOTAL3 TEMPAVG PRESSURE GPRESSURE VOLUME PRESSAVG GPRESSAVG
ENERGY: 800000 0.0000 0.0000 0.0000 0.0000 -11858.2880 1706.3215 0.0000 0.0000 1326.6054 -8825.3611 226.3744 -10151.9665 -8823.3656 226.3744 -103.9603 -28.0555 29180.0277 -103.9603 -28.0555
ENERGY: 900000 0.0000 0.0000 0.0000 0.0000 -11331.2348 1587.3429 0.0000 0.0000 1633.2706 -8110.6212 278.7044 -9743.8918 -8108.7712 269.6993 247.7893 286.0539 29653.7235 3.7606 3.6838
TCL: Running 1000000 steps at 300 kelvin.
TCL: Setting parameter langevinTemp to 300
TCL: Running for 1000000 steps
ETITLE: TS BOND ANGLE DIHED IMPRP ELECT VDW BOUNDARY MISC KINETIC TOTAL TEMP POTENTIAL TOTAL3 TEMPAVG PRESSURE GPRESSURE VOLUME PRESSAVG GPRESSAVG
ENERGY: 900000 0.0000 0.0000 0.0000 0.0000 -11331.2348 1587.3429 0.0000 0.0000 1632.5004 -8111.3915 278.5729 -9743.8918 -8109.4064 278.5729 193.4938 284.7776 29653.7235 193.4938 284.7776
ENERGY: 1100000 0.0000 0.0000 0.0000 0.0000 -10638.8001 1390.1133 0.0000 0.0000 1756.6781 -7492.0087 299.7628 -9248.6868 -7490.9931 299.4545 -309.6535 -143.8173 30594.4471 5.0074 4.8488
ENERGY: 1300000 0.0000 0.0000 0.0000 0.0000 -10654.2413 1325.6887 0.0000 0.0000 1808.6259 -7519.9267 308.6273 -9328.5526 -7517.8882 300.3066 -818.5769 -690.1987 30543.9465 3.8393 3.8808
ENERGY: 1500000 0.0000 0.0000 0.0000 0.0000 -10644.7692 1370.7537 0.0000 0.0000 1736.8578 -7537.1577 296.3807 -9274.0156 -7534.9859 300.2486 -524.3866 -498.0521 30922.8373 4.1926 4.1612
ENERGY: 1700000 0.0000 0.0000 0.0000 0.0000 -10675.1258 1399.0459 0.0000 0.0000 1800.4751 -7475.6047 307.2365 -9276.0798 -7472.5267 300.0138 -438.4744 -380.9231 31253.0936 3.4562 3.4699
ENERGY: 1900000 0.0000 0.0000 0.0000 0.0000 -10670.9940 1386.6213 0.0000 0.0000 1798.9170 -7485.4557 306.9706 -9284.3727 -7482.3244 298.9617 -590.5213 -591.6267 31562.3845 2.9208 2.9228
TCL: Exiting due to exit command.
