Info: SIMULATION PARAMETERS:
Info: TIMESTEP               2
Info: NUMBER OF STEPS        0
Info: STEPS PER CYCLE        10
Info: PERIODIC CELL BASIS 1  37.399 0 0
Info: PERIODIC CELL BASIS 2  0 36.451 0
Info: PERIODIC CELL BASIS 3  0 0 31.855
Info: PERIODIC CELL CENTER   0 0 0
Info: WRAPPING WATERS AROUND PERIODIC BOUNDARIES ON OUTPUT.
Info: WRAPPING ALL CLUSTERS AROUND PERIODIC BOUNDARIES ON OUTPUT.
Info: FIRST LDB TIMESTEP     50
Info: LAST LDB TIMESTEP     -1
Info: HOM BACKGROUND SCALING 1
Info: PME BACKGROUND SCALING 1
Info: MIN ATOMS PER PATCH    40
Info: EMPTY PATCH LOAD       40 ATOMS
Info: INITIAL TEMPERATURE    300
Info: CENTER OF MASS MOVING INITIALLY? NO
Info: DIELECTRIC             1
Info: EXCLUDE                SCALED ONE-FOUR
Info: 1-4 ELECTROSTATICS SCALED BY 0.833333
Info: MODIFIED 1-4 VDW PARAMETERS WILL BE USED
Info: DCD FILENAME           mobley_4395315_equil.dcd
Info: DCD FREQUENCY          100000
Info: DCD FIRST STEP         100000
Info: DCD FILE WILL CONTAIN UNIT CELL DATA
Info: XST FILENAME           mobley_4395315_equil.xst
Info: XST FREQUENCY          100000
Info: NO VELOCITY DCD OUTPUT
Info: NO FORCE DCD OUTPUT
Info: OUTPUT FILENAME        mobley_4395315_equil
Info: BINARY OUTPUT FILES WILL BE USED
Info: RESTART FILENAME       mobley_4395315_equil.restart
Info: RESTART FREQUENCY      100000
Info: BINARY RESTART FILES WILL BE USED
Info: CUTOFF                 9
Info: PAIRLIST DISTANCE      11
Info: PAIRLIST SHRINK RATE   0.01
Info: PAIRLIST GROW RATE     0.01
Info: PAIRLIST TRIGGER       0.3
Info: PAIRLISTS PER CYCLE    2
Info: PAIRLISTS ENABLED
Info: MARGIN                 8
Info: HYDROGEN GROUP CUTOFF  2.5
Info: PATCH DIMENSION        21.5
Info: ENERGY OUTPUT STEPS    100000
Info: ENERGY EVALUATION STEPS    100000
Info: OUTPUT ENERGY PRECISION 4
Info: CROSSTERM ENERGY INCLUDED IN DIHEDRAL
Info: TIMING OUTPUT STEPS    1000000
Info: PRESSURE OUTPUT STEPS  100000
Info: FIXED ATOMS ACTIVE
Info: LANGEVIN DYNAMICS ACTIVE
Info: LANGEVIN TEMPERATURE   30
Info: LANGEVIN USING BBK INTEGRATOR
Info: LANGEVIN DAMPING COEFFICIENT IS 1 INVERSE PS
Info: LANGEVIN DYNAMICS APPLIED TO HYDROGENS
Info: LANGEVIN PISTON PRESSURE CONTROL ACTIVE
Info:        TARGET PRESSURE IS 1.01325 BAR
Info:     OSCILLATION PERIOD IS 50 FS
Info:             DECAY TIME IS 25 FS
Info:     PISTON TEMPERATURE IS 300 K
Info:       PRESSURE CONTROL IS GROUP-BASED
Info:    INITIAL STRAIN RATE IS 0 0 0
Info:       CELL FLUCTUATION IS ISOTROPIC
Info: PARTICLE MESH EWALD (PME) ACTIVE
Info: PME TOLERANCE               1e-06
Info: PME EWALD COEFFICIENT       0.348832
Info: PME INTERPOLATION ORDER     4
Info: PME GRID DIMENSIONS         40 40 32
Info: PME MAXIMUM GRID SPACING    1
Info: FULL ELECTROSTATIC EVALUATION FREQUENCY      2
Info: USING VERLET I (r-RESPA) MTS SCHEME.
Info: C1 SPLITTING OF LONG RANGE ELECTROSTATICS
Info: PLACING ATOMS IN PATCHES BY HYDROGEN GROUPS
Info: RIGID BONDS TO HYDROGEN : ALL
Info:         ERROR TOLERANCE : 1e-08
Info:          MAX ITERATIONS : 100
Info: RIGID WATER USING SETTLE ALGORITHM
Info: RANDOM NUMBER SEED     1743739310
Info: USE HYDROGEN BONDS?    NO
Info: Using AMBER format force field!
Info: AMBER PARM FILE        mobley_4395315.prmtop
Info: COORDINATE PDB         mobley_4395315.pdb
Info: Exclusions will be read from PARM file!
Info: SCNB (VDW SCALING)     2
Info: USING ARITHMETIC MEAN TO COMBINE L-J SIGMA PARAMETERS
Info: BINARY COORDINATES     mobley_4395315_min.coor
Info: SUMMARY OF PARAMETERS:
Info: 9 BONDS
Info: 8 ANGLES
Info:   8 HARMONIC
Info:   0 COSINE-BASED
Info: 4 DIHEDRAL
Info: 0 IMPROPER
Info: 0 CROSSTERM
Info: 0 VDW
Info: 36 VDW_PAIRS
Info: 0 NBTHOLE_PAIRS
Info: STRUCTURE SUMMARY:
Info: 2932 ATOMS
Info: 2932 BONDS
Info: 25 ANGLES
Info: 38 DIHEDRALS
Info: 0 IMPROPERS
Info: 0 CROSSTERMS
Info: 2986 EXCLUSIONS
Info: 16 FIXED ATOMS
Info: 2923 RIGID BONDS
Info: 7 RIGID BONDS BETWEEN FIXED ATOMS
Info: 5832 DEGREES OF FREEDOM
Info: 981 HYDROGEN GROUPS
Info: 4 ATOMS IN LARGEST HYDROGEN GROUP
Info: 981 MIGRATION GROUPS
Info: 4 ATOMS IN LARGEST MIGRATION GROUP
Info: 9 HYDROGEN GROUPS WITH ALL ATOMS FIXED
Info: TOTAL MASS = 17654.1 amu
Info: TOTAL CHARGE = -7.45058e-09 e
Info: MASS DENSITY = 0.675085 g/cm^3
Info: ATOM DENSITY = 0.0675176 atoms/A^3
Info: ADDED 0 IMPLICIT EXCLUSIONS
Info: NONBONDED TABLE R-SQUARED SPACING: 0.0625
Info: NONBONDED TABLE SIZE: 705 POINTS
Info: REMOVING COM VELOCITY -0.278755 0.0857712 -0.0532991
TCL: Running for 100000 steps
ETITLE: TS BOND ANGLE DIHED IMPRP ELECT VDW BOUNDARY MISC KINETIC TOTAL TEMP POTENTIAL TOTAL3 TEMPAVG PRESSURE GPRESSURE VOLUME PRESSAVG GPRESSAVG
ENERGY: 0 0.0000 0.0000 0.0000 0.0000 -13591.2178 2348.5353 0.0000 0.0000 1715.7867 -9526.8958 296.0985 -11242.6825 -9526.5617 296.0985 146.1151 173.4333 43425.7219 146.1151 173.4333
ENERGY: 100000 0.0000 0.0000 0.0000 0.0000 -14006.6477 2357.1128 0.0000 0.0000 179.7392 -11469.7956 31.0181 -11649.5348 -11469.3164 30.8813 -904.3321 -865.1149 29752.2857 3.4810 3.5218
TCL: Running 100000 steps at 60 kelvin.
TCL: Setting parameter langevinTemp to 60
TCL: Running for 100000 steps
ETITLE: TS BOND ANGLE DIHED IMPRP ELECT VDW BOUNDARY MISC KINETIC TOTAL TEMP POTENTIAL TOTAL3 TEMPAVG PRESSURE GPRESSURE VOLUME PRESSAVG GPRESSAVG
ENERGY: 100000 0.0000 0.0000 0.0000 0.0000 -14006.6477 2357.1128 0.0000 0.0000 179.6500 -11469.8848 31.0027 -11649.5348 -11469.4929 31.0027 -920.8493 -865.0109 29752.2857 -920.8493 -865.0109
ENERGY: 200000 0.0000 0.0000 0.0000 0.0000 -13860.0940 2239.8380 0.0000 0.0000 349.3188 -11270.9372 60.2830 -11620.2561 -11269.5251 59.8825 -1656.5198 -1621.6663 29314.8880 4.1446 4.2380
TCL: Running 100000 steps at 90 kelvin.
TCL: Setting parameter langevinTemp to 90
TCL: Running for 100000 steps
ETITLE: TS BOND ANGLE DIHED IMPRP ELECT VDW BOUNDARY MISC KINETIC TOTAL TEMP POTENTIAL TOTAL3 TEMPAVG PRESSURE GPRESSURE VOLUME PRESSAVG GPRESSAVG
ENERGY: 200000 0.0000 0.0000 0.0000 0.0000 -13860.0940 2239.8380 0.0000 0.0000 349.1530 -11271.1031 60.2544 -11620.2561 -11270.1914 60.2544 -1663.6085 -1621.4289 29314.8880 -1663.6085 -1621.4289
ENERGY: 300000 0.0000 0.0000 0.0000 0.0000 -13804.1749 2268.8659 0.0000 0.0000 521.3664 -11013.9427 89.9738 -11535.3091 -11012.9082 89.9296 -1031.9326 -967.7156 28911.3734 3.7892 3.7635
TCL: Running 100000 steps at 120 kelvin.
TCL: Setting parameter langevinTemp to 120
TCL: Running for 100000 steps
ETITLE: TS BOND ANGLE DIHED IMPRP ELECT VDW BOUNDARY MISC KINETIC TOTAL TEMP POTENTIAL TOTAL3 TEMPAVG PRESSURE GPRESSURE VOLUME PRESSAVG GPRESSAVG
ENERGY: 300000 0.0000 0.0000 0.0000 0.0000 -13804.1749 2268.8659 0.0000 0.0000 521.0975 -11014.2116 89.9274 -11535.3091 -11013.0113 89.9274 -1016.6328 -968.1937 28911.3734 -1016.6328 -968.1937
ENERGY: 400000 0.0000 0.0000 0.0000 0.0000 -13693.5005 2255.2896 0.0000 0.0000 696.0490 -10742.1619 120.1193 -11438.2109 -10739.0089 119.8192 -828.2367 -780.9796 29092.5883 4.1163 4.1828
TCL: Running 100000 steps at 150 kelvin.
TCL: Setting parameter langevinTemp to 150
TCL: Running for 100000 steps
ETITLE: TS BOND ANGLE DIHED IMPRP ELECT VDW BOUNDARY MISC KINETIC TOTAL TEMP POTENTIAL TOTAL3 TEMPAVG PRESSURE GPRESSURE VOLUME PRESSAVG GPRESSAVG
ENERGY: 400000 0.0000 0.0000 0.0000 0.0000 -13693.5005 2255.2896 0.0000 0.0000 695.6868 -10742.5240 120.0568 -11438.2109 -10741.2026 120.0568 -826.2115 -779.8782 29092.5883 -826.2115 -779.8782
ENERGY: 500000 0.0000 0.0000 0.0000 0.0000 -13543.7895 2318.3015 0.0000 0.0000 847.2735 -10378.2146 146.2165 -11225.4881 -10376.0124 149.7386 476.3809 482.3432 29108.9173 3.9535 3.8136
TCL: Running 100000 steps at 180 kelvin.
TCL: Setting parameter langevinTemp to 180
TCL: Running for 100000 steps
ETITLE: TS BOND ANGLE DIHED IMPRP ELECT VDW BOUNDARY MISC KINETIC TOTAL TEMP POTENTIAL TOTAL3 TEMPAVG PRESSURE GPRESSURE VOLUME PRESSAVG GPRESSAVG
ENERGY: 500000 0.0000 0.0000 0.0000 0.0000 -13543.7895 2318.3015 0.0000 0.0000 846.8387 -10378.6493 146.1415 -11225.4881 -10377.3819 146.1415 443.7189 482.4280 29108.9173 443.7189 482.4280
ENERGY: 600000 0.0000 0.0000 0.0000 0.0000 -13074.7568 2120.0896 0.0000 0.0000 1033.0339 -9921.6332 178.2738 -10954.6672 -9919.8142 179.9085 199.8684 233.1144 28522.4776 3.0515 2.9572
TCL: Running 100000 steps at 210 kelvin.
TCL: Setting parameter langevinTemp to 210
TCL: Running for 100000 steps
ETITLE: TS BOND ANGLE DIHED IMPRP ELECT VDW BOUNDARY MISC KINETIC TOTAL TEMP POTENTIAL TOTAL3 TEMPAVG PRESSURE GPRESSURE VOLUME PRESSAVG GPRESSAVG
ENERGY: 600000 0.0000 0.0000 0.0000 0.0000 -13074.7568 2120.0896 0.0000 0.0000 1032.5203 -9922.1469 178.1851 -10954.6672 -9920.0243 178.1851 184.5666 232.2676 28522.4776 184.5666 232.2676
ENERGY: 700000 0.0000 0.0000 0.0000 0.0000 -12367.3815 1835.8008 0.0000 0.0000 1278.2464 -9253.3343 220.5908 -10531.5808 -9249.1315 210.3667 -443.5358 -377.4544 28750.4839 3.0064 3.0305
TCL: Running 100000 steps at 240 kelvin.
TCL: Setting parameter langevinTemp to 240
TCL: Running for 100000 steps
ETITLE: TS BOND ANGLE DIHED IMPRP ELECT VDW BOUNDARY MISC KINETIC TOTAL TEMP POTENTIAL TOTAL3 TEMPAVG PRESSURE GPRESSURE VOLUME PRESSAVG GPRESSAVG
ENERGY: 700000 0.0000 0.0000 0.0000 0.0000 -12367.3815 1835.8008 0.0000 0.0000 1277.6468 -9253.9339 220.4874 -10531.5808 -9251.8459 220.4874 -452.5600 -375.9277 28750.4839 -452.5600 -375.9277
ENERGY: 800000 0.0000 0.0000 0.0000 0.0000 -11822.1604 1782.5131 0.0000 0.0000 1466.8497 -8572.7976 253.1387 -10039.6473 -8571.2227 239.6465 622.8849 671.3806 29002.8744 3.7510 3.8064
TCL: Running 100000 steps at 270 kelvin.
TCL: Setting parameter langevinTemp to 270
TCL: Running for 100000 steps
ETITLE: TS BOND ANGLE DIHED IMPRP ELECT VDW BOUNDARY MISC KINETIC TOTAL TEMP POTENTIAL TOTAL3 TEMPAVG PRESSURE GPRESSURE VOLUME PRESSAVG GPRESSAVG
ENERGY: 800000 0.0000 0.0000 0.0000 0.0000 -11822.1604 1782.5131 0.0000 0.0000 1466.1496 -8573.4977 253.0178 -10039.6473 -8571.7972 253.0178 597.8878 670.1974 29002.8744 597.8878 670.1974
ENERGY: 900000 0.0000 0.0000 0.0000 0.0000 -11220.4444 1570.0438 0.0000 0.0000 1559.2595 -8091.1411 269.0861 -9650.4006 -8088.7116 269.9270 33.5537 119.4365 29525.1156 2.3353 2.4233
TCL: Running 1000000 steps at 300 kelvin.
TCL: Setting parameter langevinTemp to 300
TCL: Running for 1000000 steps
ETITLE: TS BOND ANGLE DIHED IMPRP ELECT VDW BOUNDARY MISC KINETIC TOTAL TEMP POTENTIAL TOTAL3 TEMPAVG PRESSURE GPRESSURE VOLUME PRESSAVG GPRESSAVG
ENERGY: 900000 0.0000 0.0000 0.0000 0.0000 -11220.4444 1570.0438 0.0000 0.0000 1558.4897 -8091.9109 268.9533 -9650.4006 -8089.3681 268.9533 31.3603 117.7323 29525.1156 31.3603 117.7323
ENERGY: 1100000 0.0000 0.0000 0.0000 0.0000 -10824.7047 1524.6173 0.0000 0.0000 1777.6065 -7522.4809 306.7669 -9300.0874 -7520.0170 299.8186 672.5285 716.1855 30370.8123 4.5603 4.5273
ENERGY: 1300000 0.0000 0.0000 0.0000 0.0000 -10715.2609 1484.6794 0.0000 0.0000 1730.2421 -7500.3394 298.5931 -9230.5815 -7496.5942 300.9102 713.3543 777.4429 29601.5088 4.0266 3.8405
ENERGY: 1500000 0.0000 0.0000 0.0000 0.0000 -10704.4480 1399.7448 0.0000 0.0000 1755.8020 -7548.9012 303.0040 -9304.7032 -7544.6469 299.9483 -387.3489 -296.7107 30136.6229 3.8674 3.6240
ENERGY: 1700000 0.0000 0.0000 0.0000 0.0000 -10498.5799 1302.9052 0.0000 0.0000 1741.2136 -7454.4611 300.4865 -9195.6747 -7450.8811 299.8594 -835.8207 -788.3263 30484.8576 3.2344 3.2929
ENERGY: 1900000 0.0000 0.0000 0.0000 0.0000 -10625.7312 1413.1131 0.0000 0.0000 1746.8131 -7465.8051 301.4528 -9212.6181 -7461.7817 300.1492 -4.3020 96.7315 30314.6244 4.2491 4.3886
TCL: Exiting due to exit command.
