Info: SIMULATION PARAMETERS:
Info: TIMESTEP               2
Info: NUMBER OF STEPS        0
Info: STEPS PER CYCLE        10
Info: PERIODIC CELL BASIS 1  36.592 0 0
Info: PERIODIC CELL BASIS 2  0 34.26 0
Info: PERIODIC CELL BASIS 3  0 0 34.229
Info: PERIODIC CELL CENTER   0 0 0
Info: WRAPPING WATERS AROUND PERIODIC BOUNDARIES ON OUTPUT.
Info: WRAPPING ALL CLUSTERS AROUND PERIODIC BOUNDARIES ON OUTPUT.
Info: FIRST LDB TIMESTEP     50
Info: LAST LDB TIMESTEP     -1
Info: HOM BACKGROUND SCALING 1
Info: PME BACKGROUND SCALING 1
Info: MIN ATOMS PER PATCH    40
Info: EMPTY PATCH LOAD       40 ATOMS
Info: INITIAL TEMPERATURE    300
Info: CENTER OF MASS MOVING INITIALLY? NO
Info: DIELECTRIC             1
Info: EXCLUDE                SCALED ONE-FOUR
Info: 1-4 ELECTROSTATICS SCALED BY 0.833333
Info: MODIFIED 1-4 VDW PARAMETERS WILL BE USED
Info: DCD FILENAME           mobley_9073553_equil.dcd
Info: DCD FREQUENCY          100000
Info: DCD FIRST STEP         100000
Info: DCD FILE WILL CONTAIN UNIT CELL DATA
Info: XST FILENAME           mobley_9073553_equil.xst
Info: XST FREQUENCY          100000
Info: NO VELOCITY DCD OUTPUT
Info: NO FORCE DCD OUTPUT
Info: OUTPUT FILENAME        mobley_9073553_equil
Info: BINARY OUTPUT FILES WILL BE USED
Info: RESTART FILENAME       mobley_9073553_equil.restart
Info: RESTART FREQUENCY      100000
Info: BINARY RESTART FILES WILL BE USED
Info: CUTOFF                 9
Info: PAIRLIST DISTANCE      11
Info: PAIRLIST SHRINK RATE   0.01
Info: PAIRLIST GROW RATE     0.01
Info: PAIRLIST TRIGGER       0.3
Info: PAIRLISTS PER CYCLE    2
Info: PAIRLISTS ENABLED
Info: MARGIN                 8
Info: HYDROGEN GROUP CUTOFF  2.5
Info: PATCH DIMENSION        21.5
Info: ENERGY OUTPUT STEPS    100000
Info: ENERGY EVALUATION STEPS    100000
Info: OUTPUT ENERGY PRECISION 4
Info: CROSSTERM ENERGY INCLUDED IN DIHEDRAL
Info: TIMING OUTPUT STEPS    1000000
Info: PRESSURE OUTPUT STEPS  100000
Info: FIXED ATOMS ACTIVE
Info: LANGEVIN DYNAMICS ACTIVE
Info: LANGEVIN TEMPERATURE   30
Info: LANGEVIN USING BBK INTEGRATOR
Info: LANGEVIN DAMPING COEFFICIENT IS 1 INVERSE PS
Info: LANGEVIN DYNAMICS APPLIED TO HYDROGENS
Info: LANGEVIN PISTON PRESSURE CONTROL ACTIVE
Info:        TARGET PRESSURE IS 1.01325 BAR
Info:     OSCILLATION PERIOD IS 50 FS
Info:             DECAY TIME IS 25 FS
Info:     PISTON TEMPERATURE IS 300 K
Info:       PRESSURE CONTROL IS GROUP-BASED
Info:    INITIAL STRAIN RATE IS 0 0 0
Info:       CELL FLUCTUATION IS ISOTROPIC
Info: PARTICLE MESH EWALD (PME) ACTIVE
Info: PME TOLERANCE               1e-06
Info: PME EWALD COEFFICIENT       0.348832
Info: PME INTERPOLATION ORDER     4
Info: PME GRID DIMENSIONS         40 36 36
Info: PME MAXIMUM GRID SPACING    1
Info: FULL ELECTROSTATIC EVALUATION FREQUENCY      2
Info: USING VERLET I (r-RESPA) MTS SCHEME.
Info: C1 SPLITTING OF LONG RANGE ELECTROSTATICS
Info: PLACING ATOMS IN PATCHES BY HYDROGEN GROUPS
Info: RIGID BONDS TO HYDROGEN : ALL
Info:         ERROR TOLERANCE : 1e-08
Info:          MAX ITERATIONS : 100
Info: RIGID WATER USING SETTLE ALGORITHM
Info: RANDOM NUMBER SEED     1743683624
Info: USE HYDROGEN BONDS?    NO
Info: Using AMBER format force field!
Info: AMBER PARM FILE        mobley_9073553.prmtop
Info: COORDINATE PDB         mobley_9073553.pdb
Info: Exclusions will be read from PARM file!
Info: SCNB (VDW SCALING)     2
Info: USING ARITHMETIC MEAN TO COMBINE L-J SIGMA PARAMETERS
Info: BINARY COORDINATES     mobley_9073553_min.coor
Info: SUMMARY OF PARAMETERS:
Info: 4 BONDS
Info: 3 ANGLES
Info:   3 HARMONIC
Info:   0 COSINE-BASED
Info: 1 DIHEDRAL
Info: 0 IMPROPER
Info: 0 CROSSTERM
Info: 0 VDW
Info: 15 VDW_PAIRS
Info: 0 NBTHOLE_PAIRS
Info: STRUCTURE SUMMARY:
Info: 2922 ATOMS
Info: 2921 BONDS
Info: 13 ANGLES
Info: 6 DIHEDRALS
Info: 0 IMPROPERS
Info: 0 CROSSTERMS
Info: 2940 EXCLUSIONS
Info: 9 FIXED ATOMS
Info: 2919 RIGID BONDS
Info: 6 RIGID BONDS BETWEEN FIXED ATOMS
Info: 5826 DEGREES OF FREEDOM
Info: 974 HYDROGEN GROUPS
Info: 4 ATOMS IN LARGEST HYDROGEN GROUP
Info: 974 MIGRATION GROUPS
Info: 4 ATOMS IN LARGEST MIGRATION GROUP
Info: 3 HYDROGEN GROUPS WITH ALL ATOMS FIXED
Info: TOTAL MASS = 17555.7 amu
Info: TOTAL CHARGE = 0.00029999 e
Info: MASS DENSITY = 0.679374 g/cm^3
Info: ATOM DENSITY = 0.0680946 atoms/A^3
Info: ADDED 0 IMPLICIT EXCLUSIONS
Info: NONBONDED TABLE R-SQUARED SPACING: 0.0625
Info: NONBONDED TABLE SIZE: 705 POINTS
Info: REMOVING COM VELOCITY -0.105853 -0.0720113 -0.0269304
TCL: Running for 100000 steps
ETITLE: TS BOND ANGLE DIHED IMPRP ELECT VDW BOUNDARY MISC KINETIC TOTAL TEMP POTENTIAL TOTAL3 TEMPAVG PRESSURE GPRESSURE VOLUME PRESSAVG GPRESSAVG
ENERGY: 0 0.0000 0.0000 0.0000 0.0000 -13521.9534 2350.7412 0.0000 0.0000 1748.1568 -9423.0554 301.9954 -11171.2122 -9422.6961 301.9954 296.3143 335.3563 42910.9093 296.3143 335.3563
ENERGY: 100000 0.0000 0.0000 0.0000 0.0000 -14082.4569 2412.9248 0.0000 0.0000 175.3223 -11494.2098 30.2871 -11669.5321 -11493.6011 30.8654 -218.2642 -163.6354 28578.4549 3.7262 3.6491
TCL: Running 100000 steps at 60 kelvin.
TCL: Setting parameter langevinTemp to 60
TCL: Running for 100000 steps
ETITLE: TS BOND ANGLE DIHED IMPRP ELECT VDW BOUNDARY MISC KINETIC TOTAL TEMP POTENTIAL TOTAL3 TEMPAVG PRESSURE GPRESSURE VOLUME PRESSAVG GPRESSAVG
ENERGY: 100000 0.0000 0.0000 0.0000 0.0000 -14082.4569 2412.9248 0.0000 0.0000 175.2404 -11494.2917 30.2729 -11669.5321 -11493.8967 30.2729 -226.7295 -163.4182 28578.4549 -226.7295 -163.4182
ENERGY: 200000 0.0000 0.0000 0.0000 0.0000 -13919.3996 2331.8658 0.0000 0.0000 354.9547 -11232.5791 61.3187 -11587.5338 -11231.7443 59.9914 -686.4831 -640.7306 28696.3838 3.6151 3.5685
TCL: Running 100000 steps at 90 kelvin.
TCL: Setting parameter langevinTemp to 90
TCL: Running for 100000 steps
ETITLE: TS BOND ANGLE DIHED IMPRP ELECT VDW BOUNDARY MISC KINETIC TOTAL TEMP POTENTIAL TOTAL3 TEMPAVG PRESSURE GPRESSURE VOLUME PRESSAVG GPRESSAVG
ENERGY: 200000 0.0000 0.0000 0.0000 0.0000 -13919.3996 2331.8658 0.0000 0.0000 354.7763 -11232.7575 61.2879 -11587.5338 -11231.9341 61.2879 -694.0713 -640.8486 28696.3838 -694.0713 -640.8486
ENERGY: 300000 0.0000 0.0000 0.0000 0.0000 -13811.6430 2326.0837 0.0000 0.0000 529.3871 -10956.1722 91.4520 -11485.5592 -10955.5013 89.8492 -487.2793 -452.9866 28896.9664 4.4903 4.5420
TCL: Running 100000 steps at 120 kelvin.
TCL: Setting parameter langevinTemp to 120
TCL: Running for 100000 steps
ETITLE: TS BOND ANGLE DIHED IMPRP ELECT VDW BOUNDARY MISC KINETIC TOTAL TEMP POTENTIAL TOTAL3 TEMPAVG PRESSURE GPRESSURE VOLUME PRESSAVG GPRESSAVG
ENERGY: 300000 0.0000 0.0000 0.0000 0.0000 -13811.6430 2326.0837 0.0000 0.0000 529.1359 -10956.4233 91.4086 -11485.5592 -10955.4539 91.4086 -495.4159 -454.2554 28896.9664 -495.4159 -454.2554
ENERGY: 400000 0.0000 0.0000 0.0000 0.0000 -13659.7665 2299.1739 0.0000 0.0000 668.9313 -10691.6612 115.5584 -11360.5925 -10689.8552 119.8342 -224.4514 -161.4706 28880.3787 4.0193 3.9027
TCL: Running 100000 steps at 150 kelvin.
TCL: Setting parameter langevinTemp to 150
TCL: Running for 100000 steps
ETITLE: TS BOND ANGLE DIHED IMPRP ELECT VDW BOUNDARY MISC KINETIC TOTAL TEMP POTENTIAL TOTAL3 TEMPAVG PRESSURE GPRESSURE VOLUME PRESSAVG GPRESSAVG
ENERGY: 400000 0.0000 0.0000 0.0000 0.0000 -13659.7665 2299.1739 0.0000 0.0000 668.5720 -10692.0205 115.4963 -11360.5925 -10690.6224 115.4963 -216.7693 -161.7215 28880.3787 -216.7693 -161.7215
ENERGY: 500000 0.0000 0.0000 0.0000 0.0000 -13611.1622 2431.6004 0.0000 0.0000 841.0360 -10338.5258 145.2896 -11179.5618 -10336.3949 149.8497 1628.3424 1678.8676 28587.2291 3.8094 3.8172
TCL: Running 100000 steps at 180 kelvin.
TCL: Setting parameter langevinTemp to 180
TCL: Running for 100000 steps
ETITLE: TS BOND ANGLE DIHED IMPRP ELECT VDW BOUNDARY MISC KINETIC TOTAL TEMP POTENTIAL TOTAL3 TEMPAVG PRESSURE GPRESSURE VOLUME PRESSAVG GPRESSAVG
ENERGY: 500000 0.0000 0.0000 0.0000 0.0000 -13611.1622 2431.6004 0.0000 0.0000 840.6123 -10338.9495 145.2164 -11179.5618 -10337.0590 145.2164 1628.2027 1678.4007 28587.2291 1628.2027 1678.4007
ENERGY: 600000 0.0000 0.0000 0.0000 0.0000 -12959.5672 2092.4636 0.0000 0.0000 1057.7306 -9809.3731 182.7237 -10867.1037 -9807.1456 179.9142 -33.3078 18.1940 28813.2546 3.4271 3.2921
TCL: Running 100000 steps at 210 kelvin.
TCL: Setting parameter langevinTemp to 210
TCL: Running for 100000 steps
ETITLE: TS BOND ANGLE DIHED IMPRP ELECT VDW BOUNDARY MISC KINETIC TOTAL TEMP POTENTIAL TOTAL3 TEMPAVG PRESSURE GPRESSURE VOLUME PRESSAVG GPRESSAVG
ENERGY: 600000 0.0000 0.0000 0.0000 0.0000 -12959.5672 2092.4636 0.0000 0.0000 1057.2182 -9809.8854 182.6352 -10867.1037 -9808.0860 182.6352 -44.4290 17.5839 28813.2546 -44.4290 17.5839
ENERGY: 700000 0.0000 0.0000 0.0000 0.0000 -12335.9170 1892.5387 0.0000 0.0000 1191.8984 -9251.4800 205.9013 -10443.3784 -9248.5165 209.6773 -69.4910 -38.7155 28862.8636 2.5123 2.4878
TCL: Running 100000 steps at 240 kelvin.
TCL: Setting parameter langevinTemp to 240
TCL: Running for 100000 steps
ETITLE: TS BOND ANGLE DIHED IMPRP ELECT VDW BOUNDARY MISC KINETIC TOTAL TEMP POTENTIAL TOTAL3 TEMPAVG PRESSURE GPRESSURE VOLUME PRESSAVG GPRESSAVG
ENERGY: 700000 0.0000 0.0000 0.0000 0.0000 -12335.9170 1892.5387 0.0000 0.0000 1191.3117 -9252.0667 205.8000 -10443.3784 -9250.3693 205.8000 -112.8851 -38.0731 28862.8636 -112.8851 -38.0731
ENERGY: 800000 0.0000 0.0000 0.0000 0.0000 -11583.3601 1638.1551 0.0000 0.0000 1311.0462 -8634.1588 226.4842 -9945.2050 -8630.7306 240.1981 -148.7525 -113.9753 28266.0462 2.7996 2.7652
TCL: Running 100000 steps at 270 kelvin.
TCL: Setting parameter langevinTemp to 270
TCL: Running for 100000 steps
ETITLE: TS BOND ANGLE DIHED IMPRP ELECT VDW BOUNDARY MISC KINETIC TOTAL TEMP POTENTIAL TOTAL3 TEMPAVG PRESSURE GPRESSURE VOLUME PRESSAVG GPRESSAVG
ENERGY: 800000 0.0000 0.0000 0.0000 0.0000 -11583.3601 1638.1551 0.0000 0.0000 1310.3804 -8634.8246 226.3692 -9945.2050 -8633.2585 226.3692 -211.3467 -112.0630 28266.0462 -211.3467 -112.0630
ENERGY: 900000 0.0000 0.0000 0.0000 0.0000 -10837.9344 1385.5800 0.0000 0.0000 1549.3999 -7902.9545 267.6600 -9452.3545 -7900.3548 270.2469 -1180.0581 -1151.3013 29987.6657 3.7202 3.6937
TCL: Running 1000000 steps at 300 kelvin.
TCL: Setting parameter langevinTemp to 300
TCL: Running for 1000000 steps
ETITLE: TS BOND ANGLE DIHED IMPRP ELECT VDW BOUNDARY MISC KINETIC TOTAL TEMP POTENTIAL TOTAL3 TEMPAVG PRESSURE GPRESSURE VOLUME PRESSAVG GPRESSAVG
ENERGY: 900000 0.0000 0.0000 0.0000 0.0000 -10837.9344 1385.5800 0.0000 0.0000 1548.6264 -7903.7281 267.5263 -9452.3545 -7901.0886 267.5263 -1241.4770 -1151.5106 29987.6657 -1241.4770 -1151.5106
ENERGY: 1100000 0.0000 0.0000 0.0000 0.0000 -10600.6064 1372.0732 0.0000 0.0000 1766.9298 -7461.6035 305.2384 -9228.5332 -7458.4528 299.5136 -725.9110 -660.6111 30579.4166 3.6636 3.6941
ENERGY: 1300000 0.0000 0.0000 0.0000 0.0000 -10636.7793 1399.7759 0.0000 0.0000 1740.3113 -7496.6921 300.6401 -9237.0034 -7491.0081 300.8993 -506.8310 -401.0313 30191.6900 2.2132 2.1893
ENERGY: 1500000 0.0000 0.0000 0.0000 0.0000 -10627.8959 1431.1911 0.0000 0.0000 1726.9518 -7469.7531 298.3322 -9196.7048 -7466.4892 300.7106 -311.5764 -173.0557 30594.2276 2.8520 2.8558
ENERGY: 1700000 0.0000 0.0000 0.0000 0.0000 -10520.3811 1365.5573 0.0000 0.0000 1727.4930 -7427.3308 298.4257 -9154.8237 -7425.3734 300.2164 -484.6036 -359.7809 30311.8758 3.4341 3.3639
ENERGY: 1900000 0.0000 0.0000 0.0000 0.0000 -10696.0202 1452.5241 0.0000 0.0000 1767.8811 -7475.6150 305.4028 -9243.4961 -7471.2491 300.7149 90.7692 145.3672 29987.4086 3.0450 3.1667
TCL: Exiting due to exit command.
