Info: SIMULATION PARAMETERS:
Info: TIMESTEP               2
Info: NUMBER OF STEPS        0
Info: STEPS PER CYCLE        10
Info: PERIODIC CELL BASIS 1  36.592 0 0
Info: PERIODIC CELL BASIS 2  0 35.411 0
Info: PERIODIC CELL BASIS 3  0 0 34.229
Info: PERIODIC CELL CENTER   0 0 0
Info: WRAPPING WATERS AROUND PERIODIC BOUNDARIES ON OUTPUT.
Info: WRAPPING ALL CLUSTERS AROUND PERIODIC BOUNDARIES ON OUTPUT.
Info: FIRST LDB TIMESTEP     50
Info: LAST LDB TIMESTEP     -1
Info: HOM BACKGROUND SCALING 1
Info: PME BACKGROUND SCALING 1
Info: MIN ATOMS PER PATCH    40
Info: EMPTY PATCH LOAD       40 ATOMS
Info: INITIAL TEMPERATURE    300
Info: CENTER OF MASS MOVING INITIALLY? NO
Info: DIELECTRIC             1
Info: EXCLUDE                SCALED ONE-FOUR
Info: 1-4 ELECTROSTATICS SCALED BY 0.833333
Info: MODIFIED 1-4 VDW PARAMETERS WILL BE USED
Info: DCD FILENAME           mobley_8578590_equil.dcd
Info: DCD FREQUENCY          100000
Info: DCD FIRST STEP         100000
Info: DCD FILE WILL CONTAIN UNIT CELL DATA
Info: XST FILENAME           mobley_8578590_equil.xst
Info: XST FREQUENCY          100000
Info: NO VELOCITY DCD OUTPUT
Info: NO FORCE DCD OUTPUT
Info: OUTPUT FILENAME        mobley_8578590_equil
Info: BINARY OUTPUT FILES WILL BE USED
Info: RESTART FILENAME       mobley_8578590_equil.restart
Info: RESTART FREQUENCY      100000
Info: BINARY RESTART FILES WILL BE USED
Info: CUTOFF                 9
Info: PAIRLIST DISTANCE      11
Info: PAIRLIST SHRINK RATE   0.01
Info: PAIRLIST GROW RATE     0.01
Info: PAIRLIST TRIGGER       0.3
Info: PAIRLISTS PER CYCLE    2
Info: PAIRLISTS ENABLED
Info: MARGIN                 8
Info: HYDROGEN GROUP CUTOFF  2.5
Info: PATCH DIMENSION        21.5
Info: ENERGY OUTPUT STEPS    100000
Info: ENERGY EVALUATION STEPS    100000
Info: OUTPUT ENERGY PRECISION 4
Info: CROSSTERM ENERGY INCLUDED IN DIHEDRAL
Info: TIMING OUTPUT STEPS    1000000
Info: PRESSURE OUTPUT STEPS  100000
Info: FIXED ATOMS ACTIVE
Info: LANGEVIN DYNAMICS ACTIVE
Info: LANGEVIN TEMPERATURE   30
Info: LANGEVIN USING BBK INTEGRATOR
Info: LANGEVIN DAMPING COEFFICIENT IS 1 INVERSE PS
Info: LANGEVIN DYNAMICS APPLIED TO HYDROGENS
Info: LANGEVIN PISTON PRESSURE CONTROL ACTIVE
Info:        TARGET PRESSURE IS 1.01325 BAR
Info:     OSCILLATION PERIOD IS 50 FS
Info:             DECAY TIME IS 25 FS
Info:     PISTON TEMPERATURE IS 300 K
Info:       PRESSURE CONTROL IS GROUP-BASED
Info:    INITIAL STRAIN RATE IS 0 0 0
Info:       CELL FLUCTUATION IS ISOTROPIC
Info: PARTICLE MESH EWALD (PME) ACTIVE
Info: PME TOLERANCE               1e-06
Info: PME EWALD COEFFICIENT       0.348832
Info: PME INTERPOLATION ORDER     4
Info: PME GRID DIMENSIONS         40 36 36
Info: PME MAXIMUM GRID SPACING    1
Info: FULL ELECTROSTATIC EVALUATION FREQUENCY      2
Info: USING VERLET I (r-RESPA) MTS SCHEME.
Info: C1 SPLITTING OF LONG RANGE ELECTROSTATICS
Info: PLACING ATOMS IN PATCHES BY HYDROGEN GROUPS
Info: RIGID BONDS TO HYDROGEN : ALL
Info:         ERROR TOLERANCE : 1e-08
Info:          MAX ITERATIONS : 100
Info: RIGID WATER USING SETTLE ALGORITHM
Info: RANDOM NUMBER SEED     1743683733
Info: USE HYDROGEN BONDS?    NO
Info: Using AMBER format force field!
Info: AMBER PARM FILE        mobley_8578590.prmtop
Info: COORDINATE PDB         mobley_8578590.pdb
Info: Exclusions will be read from PARM file!
Info: SCNB (VDW SCALING)     2
Info: USING ARITHMETIC MEAN TO COMBINE L-J SIGMA PARAMETERS
Info: BINARY COORDINATES     mobley_8578590_min.coor
Info: SUMMARY OF PARAMETERS:
Info: 5 BONDS
Info: 4 ANGLES
Info:   4 HARMONIC
Info:   0 COSINE-BASED
Info: 1 DIHEDRAL
Info: 0 IMPROPER
Info: 0 CROSSTERM
Info: 0 VDW
Info: 21 VDW_PAIRS
Info: 0 NBTHOLE_PAIRS
Info: STRUCTURE SUMMARY:
Info: 2938 ATOMS
Info: 2937 BONDS
Info: 15 ANGLES
Info: 12 DIHEDRALS
Info: 0 IMPROPERS
Info: 0 CROSSTERMS
Info: 2964 EXCLUSIONS
Info: 10 FIXED ATOMS
Info: 2934 RIGID BONDS
Info: 6 RIGID BONDS BETWEEN FIXED ATOMS
Info: 5856 DEGREES OF FREEDOM
Info: 980 HYDROGEN GROUPS
Info: 4 ATOMS IN LARGEST HYDROGEN GROUP
Info: 980 MIGRATION GROUPS
Info: 4 ATOMS IN LARGEST MIGRATION GROUP
Info: 4 HYDROGEN GROUPS WITH ALL ATOMS FIXED
Info: TOTAL MASS = 17661.7 amu
Info: TOTAL CHARGE = 0.00030005 e
Info: MASS DENSITY = 0.661263 g/cm^3
Info: ATOM DENSITY = 0.066242 atoms/A^3
Info: ADDED 0 IMPLICIT EXCLUSIONS
Info: NONBONDED TABLE R-SQUARED SPACING: 0.0625
Info: NONBONDED TABLE SIZE: 705 POINTS
Info: REMOVING COM VELOCITY 0.102076 -0.231628 0.0420995
TCL: Running for 100000 steps
ETITLE: TS BOND ANGLE DIHED IMPRP ELECT VDW BOUNDARY MISC KINETIC TOTAL TEMP POTENTIAL TOTAL3 TEMPAVG PRESSURE GPRESSURE VOLUME PRESSAVG GPRESSAVG
ENERGY: 0 0.0000 0.0000 0.0000 0.0000 -13598.7536 2387.9362 0.0000 0.0000 1725.2990 -9485.5185 296.5198 -11210.8175 -9485.2085 296.5198 523.0744 551.8857 44352.5455 523.0744 551.8857
ENERGY: 100000 0.0000 0.0000 0.0000 0.0000 -14165.6971 2442.3430 0.0000 0.0000 176.5387 -11546.8154 30.3410 -11723.3541 -11546.4112 30.9142 -147.6449 -115.2064 28791.3404 4.0622 4.1054
TCL: Running 100000 steps at 60 kelvin.
TCL: Setting parameter langevinTemp to 60
TCL: Running for 100000 steps
ETITLE: TS BOND ANGLE DIHED IMPRP ELECT VDW BOUNDARY MISC KINETIC TOTAL TEMP POTENTIAL TOTAL3 TEMPAVG PRESSURE GPRESSURE VOLUME PRESSAVG GPRESSAVG
ENERGY: 100000 0.0000 0.0000 0.0000 0.0000 -14165.6971 2442.3430 0.0000 0.0000 176.4501 -11546.9040 30.3257 -11723.3541 -11546.5251 30.3257 -162.7192 -115.2431 28791.3404 -162.7192 -115.2431
ENERGY: 200000 0.0000 0.0000 0.0000 0.0000 -14038.7197 2399.9923 0.0000 0.0000 339.9657 -11298.7618 58.4285 -11638.7274 -11297.6350 59.9923 -117.0418 -103.2953 28864.1277 4.4947 4.4943
TCL: Running 100000 steps at 90 kelvin.
TCL: Setting parameter langevinTemp to 90
TCL: Running for 100000 steps
ETITLE: TS BOND ANGLE DIHED IMPRP ELECT VDW BOUNDARY MISC KINETIC TOTAL TEMP POTENTIAL TOTAL3 TEMPAVG PRESSURE GPRESSURE VOLUME PRESSAVG GPRESSAVG
ENERGY: 200000 0.0000 0.0000 0.0000 0.0000 -14038.7197 2399.9923 0.0000 0.0000 339.7862 -11298.9412 58.3976 -11638.7274 -11298.3601 58.3976 -141.6778 -102.9255 28864.1277 -141.6778 -102.9255
ENERGY: 300000 0.0000 0.0000 0.0000 0.0000 -13890.5228 2326.1758 0.0000 0.0000 525.0751 -11039.2719 90.2424 -11564.3470 -11038.4203 89.7832 -515.6728 -418.9586 28687.0602 3.7313 3.5904
TCL: Running 100000 steps at 120 kelvin.
TCL: Setting parameter langevinTemp to 120
TCL: Running for 100000 steps
ETITLE: TS BOND ANGLE DIHED IMPRP ELECT VDW BOUNDARY MISC KINETIC TOTAL TEMP POTENTIAL TOTAL3 TEMPAVG PRESSURE GPRESSURE VOLUME PRESSAVG GPRESSAVG
ENERGY: 300000 0.0000 0.0000 0.0000 0.0000 -13890.5228 2326.1758 0.0000 0.0000 524.8015 -11039.5455 90.1954 -11564.3470 -11038.1545 90.1954 -464.3159 -419.3283 28687.0602 -464.3159 -419.3283
ENERGY: 400000 0.0000 0.0000 0.0000 0.0000 -13733.9779 2309.4485 0.0000 0.0000 687.2767 -10737.2527 118.1193 -11424.5295 -10735.9096 119.9466 -23.4264 27.6212 28640.9681 3.7004 3.6204
TCL: Running 100000 steps at 150 kelvin.
TCL: Setting parameter langevinTemp to 150
TCL: Running for 100000 steps
ETITLE: TS BOND ANGLE DIHED IMPRP ELECT VDW BOUNDARY MISC KINETIC TOTAL TEMP POTENTIAL TOTAL3 TEMPAVG PRESSURE GPRESSURE VOLUME PRESSAVG GPRESSAVG
ENERGY: 400000 0.0000 0.0000 0.0000 0.0000 -13733.9779 2309.4485 0.0000 0.0000 686.9250 -10737.6044 118.0589 -11424.5295 -10736.4655 118.0589 -23.1114 28.2056 28640.9681 -23.1114 28.2056
ENERGY: 500000 0.0000 0.0000 0.0000 0.0000 -13489.9570 2190.5738 0.0000 0.0000 912.4405 -10386.9427 156.8173 -11299.3833 -10383.9031 149.7554 -673.6303 -625.1339 29193.5249 4.2607 4.2388
TCL: Running 100000 steps at 180 kelvin.
TCL: Setting parameter langevinTemp to 180
TCL: Running for 100000 steps
ETITLE: TS BOND ANGLE DIHED IMPRP ELECT VDW BOUNDARY MISC KINETIC TOTAL TEMP POTENTIAL TOTAL3 TEMPAVG PRESSURE GPRESSURE VOLUME PRESSAVG GPRESSAVG
ENERGY: 500000 0.0000 0.0000 0.0000 0.0000 -13489.9570 2190.5738 0.0000 0.0000 912.0093 -10387.3739 156.7432 -11299.3833 -10385.3924 156.7432 -670.5199 -624.5670 29193.5249 -670.5199 -624.5670
ENERGY: 600000 0.0000 0.0000 0.0000 0.0000 -13215.6990 2180.2488 0.0000 0.0000 1022.7917 -10012.6584 175.7829 -11035.4502 -10011.7777 179.6008 344.2625 396.7662 28727.0678 2.4416 2.4108
TCL: Running 100000 steps at 210 kelvin.
TCL: Setting parameter langevinTemp to 210
TCL: Running for 100000 steps
ETITLE: TS BOND ANGLE DIHED IMPRP ELECT VDW BOUNDARY MISC KINETIC TOTAL TEMP POTENTIAL TOTAL3 TEMPAVG PRESSURE GPRESSURE VOLUME PRESSAVG GPRESSAVG
ENERGY: 600000 0.0000 0.0000 0.0000 0.0000 -13215.6990 2180.2488 0.0000 0.0000 1022.2580 -10013.1922 175.6911 -11035.4502 -10011.7354 175.6911 344.0183 396.4058 28727.0678 344.0183 396.4058
ENERGY: 700000 0.0000 0.0000 0.0000 0.0000 -12334.2862 1819.3971 0.0000 0.0000 1184.0885 -9330.8006 203.5042 -10514.8891 -9327.2524 209.7099 -340.8829 -310.3314 28328.5449 4.8328 4.9222
TCL: Running 100000 steps at 240 kelvin.
TCL: Setting parameter langevinTemp to 240
TCL: Running for 100000 steps
ETITLE: TS BOND ANGLE DIHED IMPRP ELECT VDW BOUNDARY MISC KINETIC TOTAL TEMP POTENTIAL TOTAL3 TEMPAVG PRESSURE GPRESSURE VOLUME PRESSAVG GPRESSAVG
ENERGY: 700000 0.0000 0.0000 0.0000 0.0000 -12334.2862 1819.3971 0.0000 0.0000 1183.4699 -9331.4192 203.3979 -10514.8891 -9329.6989 203.3979 -388.5142 -311.7262 28328.5449 -388.5142 -311.7262
ENERGY: 800000 0.0000 0.0000 0.0000 0.0000 -11776.1373 1679.2079 0.0000 0.0000 1369.2674 -8727.6621 235.3302 -10096.9294 -8724.8959 239.6301 -461.8653 -372.7914 29197.8520 3.7903 3.6970
TCL: Running 100000 steps at 270 kelvin.
TCL: Setting parameter langevinTemp to 270
TCL: Running for 100000 steps
ETITLE: TS BOND ANGLE DIHED IMPRP ELECT VDW BOUNDARY MISC KINETIC TOTAL TEMP POTENTIAL TOTAL3 TEMPAVG PRESSURE GPRESSURE VOLUME PRESSAVG GPRESSAVG
ENERGY: 800000 0.0000 0.0000 0.0000 0.0000 -11776.1373 1679.2079 0.0000 0.0000 1368.5638 -8728.3656 235.2092 -10096.9294 -8726.8385 235.2092 -458.8738 -373.3515 29197.8520 -458.8738 -373.3515
ENERGY: 900000 0.0000 0.0000 0.0000 0.0000 -11319.5709 1653.0994 0.0000 0.0000 1551.2253 -8115.2462 266.6025 -9666.4715 -8111.1682 269.9924 836.9082 896.3674 29147.5808 1.8613 1.8399
TCL: Running 1000000 steps at 300 kelvin.
TCL: Setting parameter langevinTemp to 300
TCL: Running for 1000000 steps
ETITLE: TS BOND ANGLE DIHED IMPRP ELECT VDW BOUNDARY MISC KINETIC TOTAL TEMP POTENTIAL TOTAL3 TEMPAVG PRESSURE GPRESSURE VOLUME PRESSAVG GPRESSAVG
ENERGY: 900000 0.0000 0.0000 0.0000 0.0000 -11319.5709 1653.0994 0.0000 0.0000 1550.4433 -8116.0282 266.4681 -9666.4715 -8113.8993 266.4681 813.2678 895.8890 29147.5808 813.2678 895.8890
ENERGY: 1100000 0.0000 0.0000 0.0000 0.0000 -10717.6304 1426.2023 0.0000 0.0000 1806.2507 -7485.1774 310.4326 -9291.4281 -7481.1589 300.1830 3.7949 48.8008 30058.8646 3.4934 3.3651
ENERGY: 1300000 0.0000 0.0000 0.0000 0.0000 -10710.6263 1470.5547 0.0000 0.0000 1726.8992 -7513.1724 296.7948 -9240.0716 -7511.4350 299.6200 245.7786 412.5058 30234.8976 1.9330 1.9874
ENERGY: 1500000 0.0000 0.0000 0.0000 0.0000 -10746.4291 1498.6017 0.0000 0.0000 1740.8399 -7506.9874 299.1907 -9247.8273 -7504.0256 299.9761 609.7409 703.3486 30173.0791 2.5059 2.5200
ENERGY: 1700000 0.0000 0.0000 0.0000 0.0000 -10645.2081 1368.3201 0.0000 0.0000 1736.0152 -7540.8728 298.3615 -9276.8880 -7538.9832 300.1856 -699.6618 -549.6807 30290.9090 2.7301 2.7755
ENERGY: 1900000 0.0000 0.0000 0.0000 0.0000 -10639.9395 1413.6518 0.0000 0.0000 1773.9560 -7452.3316 304.8823 -9226.2877 -7450.7366 300.3887 -60.8120 -16.0776 30359.3078 3.6663 3.6978
TCL: Exiting due to exit command.
