Info: SIMULATION PARAMETERS:
Info: TIMESTEP               2
Info: NUMBER OF STEPS        0
Info: STEPS PER CYCLE        10
Info: PERIODIC CELL BASIS 1  37.435 0 0
Info: PERIODIC CELL BASIS 2  0 35.779 0
Info: PERIODIC CELL BASIS 3  0 0 32.993
Info: PERIODIC CELL CENTER   0 0 0
Info: WRAPPING WATERS AROUND PERIODIC BOUNDARIES ON OUTPUT.
Info: WRAPPING ALL CLUSTERS AROUND PERIODIC BOUNDARIES ON OUTPUT.
Info: FIRST LDB TIMESTEP     50
Info: LAST LDB TIMESTEP     -1
Info: HOM BACKGROUND SCALING 1
Info: PME BACKGROUND SCALING 1
Info: MIN ATOMS PER PATCH    40
Info: EMPTY PATCH LOAD       40 ATOMS
Info: INITIAL TEMPERATURE    300
Info: CENTER OF MASS MOVING INITIALLY? NO
Info: DIELECTRIC             1
Info: EXCLUDE                SCALED ONE-FOUR
Info: 1-4 ELECTROSTATICS SCALED BY 0.833333
Info: MODIFIED 1-4 VDW PARAMETERS WILL BE USED
Info: DCD FILENAME           mobley_1728386_equil.dcd
Info: DCD FREQUENCY          100000
Info: DCD FIRST STEP         100000
Info: DCD FILE WILL CONTAIN UNIT CELL DATA
Info: XST FILENAME           mobley_1728386_equil.xst
Info: XST FREQUENCY          100000
Info: NO VELOCITY DCD OUTPUT
Info: NO FORCE DCD OUTPUT
Info: OUTPUT FILENAME        mobley_1728386_equil
Info: BINARY OUTPUT FILES WILL BE USED
Info: RESTART FILENAME       mobley_1728386_equil.restart
Info: RESTART FREQUENCY      100000
Info: BINARY RESTART FILES WILL BE USED
Info: CUTOFF                 9
Info: PAIRLIST DISTANCE      11
Info: PAIRLIST SHRINK RATE   0.01
Info: PAIRLIST GROW RATE     0.01
Info: PAIRLIST TRIGGER       0.3
Info: PAIRLISTS PER CYCLE    2
Info: PAIRLISTS ENABLED
Info: MARGIN                 8
Info: HYDROGEN GROUP CUTOFF  2.5
Info: PATCH DIMENSION        21.5
Info: ENERGY OUTPUT STEPS    100000
Info: ENERGY EVALUATION STEPS    100000
Info: OUTPUT ENERGY PRECISION 4
Info: CROSSTERM ENERGY INCLUDED IN DIHEDRAL
Info: TIMING OUTPUT STEPS    1000000
Info: PRESSURE OUTPUT STEPS  100000
Info: FIXED ATOMS ACTIVE
Info: LANGEVIN DYNAMICS ACTIVE
Info: LANGEVIN TEMPERATURE   30
Info: LANGEVIN USING BBK INTEGRATOR
Info: LANGEVIN DAMPING COEFFICIENT IS 1 INVERSE PS
Info: LANGEVIN DYNAMICS APPLIED TO HYDROGENS
Info: LANGEVIN PISTON PRESSURE CONTROL ACTIVE
Info:        TARGET PRESSURE IS 1.01325 BAR
Info:     OSCILLATION PERIOD IS 50 FS
Info:             DECAY TIME IS 25 FS
Info:     PISTON TEMPERATURE IS 300 K
Info:       PRESSURE CONTROL IS GROUP-BASED
Info:    INITIAL STRAIN RATE IS 0 0 0
Info:       CELL FLUCTUATION IS ISOTROPIC
Info: PARTICLE MESH EWALD (PME) ACTIVE
Info: PME TOLERANCE               1e-06
Info: PME EWALD COEFFICIENT       0.348832
Info: PME INTERPOLATION ORDER     4
Info: PME GRID DIMENSIONS         40 36 36
Info: PME MAXIMUM GRID SPACING    1
Info: FULL ELECTROSTATIC EVALUATION FREQUENCY      2
Info: USING VERLET I (r-RESPA) MTS SCHEME.
Info: C1 SPLITTING OF LONG RANGE ELECTROSTATICS
Info: PLACING ATOMS IN PATCHES BY HYDROGEN GROUPS
Info: RIGID BONDS TO HYDROGEN : ALL
Info:         ERROR TOLERANCE : 1e-08
Info:          MAX ITERATIONS : 100
Info: RIGID WATER USING SETTLE ALGORITHM
Info: RANDOM NUMBER SEED     1744091791
Info: USE HYDROGEN BONDS?    NO
Info: Using AMBER format force field!
Info: AMBER PARM FILE        mobley_1728386.prmtop
Info: COORDINATE PDB         mobley_1728386.pdb
Info: Exclusions will be read from PARM file!
Info: SCNB (VDW SCALING)     2
Info: USING ARITHMETIC MEAN TO COMBINE L-J SIGMA PARAMETERS
Info: BINARY COORDINATES     mobley_1728386_min.coor
Info: SUMMARY OF PARAMETERS:
Info: 8 BONDS
Info: 8 ANGLES
Info: 6 DIHEDRAL
Info: 0 IMPROPER
Info: 0 CROSSTERM
Info: 0 VDW
Info: 28 VDW_PAIRS
Info: 0 NBTHOLE_PAIRS
Info: STRUCTURE SUMMARY:
Info: 2989 ATOMS
Info: 2989 BONDS
Info: 24 ANGLES
Info: 42 DIHEDRALS
Info: 0 IMPROPERS
Info: 0 CROSSTERMS
Info: 3042 EXCLUSIONS
Info: 16 FIXED ATOMS
Info: 2980 RIGID BONDS
Info: 7 RIGID BONDS BETWEEN FIXED ATOMS
Info: 5946 DEGREES OF FREEDOM
Info: 1000 HYDROGEN GROUPS
Info: 3 ATOMS IN LARGEST HYDROGEN GROUP
Info: 1000 MIGRATION GROUPS
Info: 3 ATOMS IN LARGEST MIGRATION GROUP
Info: 9 HYDROGEN GROUPS WITH ALL ATOMS FIXED
Info: TOTAL MASS = 17975 amu
Info: TOTAL CHARGE = -9.99048e-05 e
Info: MASS DENSITY = 0.675461 g/cm^3
Info: ATOM DENSITY = 0.0676391 atoms/A^3
Info: ADDED 0 IMPLICIT EXCLUSIONS
Info: NONBONDED TABLE R-SQUARED SPACING: 0.0625
Info: NONBONDED TABLE SIZE: 705 POINTS
Info: REMOVING COM VELOCITY -0.105663 0.135933 0.0640122
TCL: Running for 100000 steps
ETITLE: TS BOND ANGLE DIHED IMPRP ELECT VDW BOUNDARY MISC KINETIC TOTAL TEMP POTENTIAL TOTAL3 TEMPAVG PRESSURE GPRESSURE VOLUME PRESSAVG GPRESSAVG
ENERGY: 0 0.0000 0.0000 0.0000 0.0000 -13948.7481 2420.6161 0.0000 0.0000 1726.8680 -9801.2640 292.2972 -11528.1321 -9800.9565 292.2972 262.6370 300.0320 44190.3908 262.6370 300.0320
ENERGY: 100000 0.0000 0.0000 0.0000 0.0000 -14649.1259 2644.8479 0.0000 0.0000 176.0860 -11828.1919 29.8051 -12004.2779 -11827.6813 30.8718 1154.8977 1197.0553 28968.8900 5.5594 5.5358
TCL: Running 100000 steps at 60 kelvin.
TCL: Setting parameter langevinTemp to 60
TCL: Running for 100000 steps
ETITLE: TS BOND ANGLE DIHED IMPRP ELECT VDW BOUNDARY MISC KINETIC TOTAL TEMP POTENTIAL TOTAL3 TEMPAVG PRESSURE GPRESSURE VOLUME PRESSAVG GPRESSAVG
ENERGY: 100000 0.0000 0.0000 0.0000 0.0000 -14649.1259 2644.8479 0.0000 0.0000 176.0008 -11828.2771 29.7907 -12004.2779 -11827.8653 29.7907 1144.9638 1197.0762 28968.8900 1144.9638 1197.0762
ENERGY: 200000 0.0000 0.0000 0.0000 0.0000 -14149.8542 2198.7528 0.0000 0.0000 362.5717 -11588.5296 61.3705 -11951.1014 -11587.4508 60.1386 -2265.8577 -2200.2981 29242.4333 3.0889 3.1846
TCL: Running 100000 steps at 90 kelvin.
TCL: Setting parameter langevinTemp to 90
TCL: Running for 100000 steps
ETITLE: TS BOND ANGLE DIHED IMPRP ELECT VDW BOUNDARY MISC KINETIC TOTAL TEMP POTENTIAL TOTAL3 TEMPAVG PRESSURE GPRESSURE VOLUME PRESSAVG GPRESSAVG
ENERGY: 200000 0.0000 0.0000 0.0000 0.0000 -14149.8542 2198.7528 0.0000 0.0000 362.3929 -11588.7085 61.3402 -11951.1014 -11587.7504 61.3402 -2255.0831 -2200.5377 29242.4333 -2255.0831 -2200.5377
ENERGY: 300000 0.0000 0.0000 0.0000 0.0000 -14249.0839 2387.3599 0.0000 0.0000 514.6108 -11347.1132 87.1053 -11861.7240 -11346.0733 89.9890 -315.0762 -306.9051 28958.5523 3.7518 3.7521
TCL: Running 100000 steps at 120 kelvin.
TCL: Setting parameter langevinTemp to 120
TCL: Running for 100000 steps
ETITLE: TS BOND ANGLE DIHED IMPRP ELECT VDW BOUNDARY MISC KINETIC TOTAL TEMP POTENTIAL TOTAL3 TEMPAVG PRESSURE GPRESSURE VOLUME PRESSAVG GPRESSAVG
ENERGY: 300000 0.0000 0.0000 0.0000 0.0000 -14249.0839 2387.3599 0.0000 0.0000 514.3410 -11347.3830 87.0596 -11861.7240 -11346.3926 87.0596 -351.5450 -306.4526 28958.5523 -351.5450 -306.4526
ENERGY: 400000 0.0000 0.0000 0.0000 0.0000 -14022.1888 2296.2518 0.0000 0.0000 722.3152 -11003.6218 122.2622 -11725.9370 -11001.7983 119.9177 -715.6768 -635.2607 29307.6311 4.2449 4.2329
TCL: Running 100000 steps at 150 kelvin.
TCL: Setting parameter langevinTemp to 150
TCL: Running for 100000 steps
ETITLE: TS BOND ANGLE DIHED IMPRP ELECT VDW BOUNDARY MISC KINETIC TOTAL TEMP POTENTIAL TOTAL3 TEMPAVG PRESSURE GPRESSURE VOLUME PRESSAVG GPRESSAVG
ENERGY: 400000 0.0000 0.0000 0.0000 0.0000 -14022.1888 2296.2518 0.0000 0.0000 721.9706 -11003.9664 122.2039 -11725.9370 -11002.2081 122.2039 -697.6287 -635.9355 29307.6311 -697.6287 -635.9355
ENERGY: 500000 0.0000 0.0000 0.0000 0.0000 -13767.9635 2231.7039 0.0000 0.0000 911.6164 -10624.6431 154.3042 -11536.2596 -10622.3690 150.2087 -493.9223 -474.7435 29563.7165 3.8585 3.9100
TCL: Running 100000 steps at 180 kelvin.
TCL: Setting parameter langevinTemp to 180
TCL: Running for 100000 steps
ETITLE: TS BOND ANGLE DIHED IMPRP ELECT VDW BOUNDARY MISC KINETIC TOTAL TEMP POTENTIAL TOTAL3 TEMPAVG PRESSURE GPRESSURE VOLUME PRESSAVG GPRESSAVG
ENERGY: 500000 0.0000 0.0000 0.0000 0.0000 -13767.9635 2231.7039 0.0000 0.0000 911.1719 -10625.0877 154.2289 -11536.2596 -10623.0169 154.2289 -538.3432 -475.5577 29563.7165 -538.3432 -475.5577
ENERGY: 600000 0.0000 0.0000 0.0000 0.0000 -13410.9457 2121.2426 0.0000 0.0000 1021.8245 -10267.8786 172.9585 -11289.7031 -10265.4734 179.5252 -269.0540 -241.2516 29121.6358 4.0423 3.9425
TCL: Running 100000 steps at 210 kelvin.
TCL: Setting parameter langevinTemp to 210
TCL: Running for 100000 steps
ETITLE: TS BOND ANGLE DIHED IMPRP ELECT VDW BOUNDARY MISC KINETIC TOTAL TEMP POTENTIAL TOTAL3 TEMPAVG PRESSURE GPRESSURE VOLUME PRESSAVG GPRESSAVG
ENERGY: 600000 0.0000 0.0000 0.0000 0.0000 -13410.9457 2121.2426 0.0000 0.0000 1021.3137 -10268.3894 172.8720 -11289.7031 -10266.1128 172.8720 -327.7727 -242.9840 29121.6358 -327.7727 -242.9840
ENERGY: 700000 0.0000 0.0000 0.0000 0.0000 -12678.2685 1903.6586 0.0000 0.0000 1233.6136 -9540.9963 208.8068 -10774.6099 -9537.0714 209.6065 -318.2921 -247.9906 29421.7004 3.8300 3.6961
TCL: Running 100000 steps at 240 kelvin.
TCL: Setting parameter langevinTemp to 240
TCL: Running for 100000 steps
ETITLE: TS BOND ANGLE DIHED IMPRP ELECT VDW BOUNDARY MISC KINETIC TOTAL TEMP POTENTIAL TOTAL3 TEMPAVG PRESSURE GPRESSURE VOLUME PRESSAVG GPRESSAVG
ENERGY: 700000 0.0000 0.0000 0.0000 0.0000 -12678.2685 1903.6586 0.0000 0.0000 1232.9943 -9541.6156 208.7020 -10774.6099 -9538.7721 208.7020 -309.0012 -247.1090 29421.7004 -309.0012 -247.1090
ENERGY: 800000 0.0000 0.0000 0.0000 0.0000 -11965.0634 1597.4295 0.0000 0.0000 1484.1034 -8883.5304 251.2058 -10367.6339 -8881.5492 240.0582 -1166.2132 -1072.4990 29405.2758 4.3657 4.3693
TCL: Running 100000 steps at 270 kelvin.
TCL: Setting parameter langevinTemp to 270
TCL: Running for 100000 steps
ETITLE: TS BOND ANGLE DIHED IMPRP ELECT VDW BOUNDARY MISC KINETIC TOTAL TEMP POTENTIAL TOTAL3 TEMPAVG PRESSURE GPRESSURE VOLUME PRESSAVG GPRESSAVG
ENERGY: 800000 0.0000 0.0000 0.0000 0.0000 -11965.0634 1597.4295 0.0000 0.0000 1483.3865 -8884.2473 251.0844 -10367.6339 -8881.5608 251.0844 -1156.5898 -1075.2685 29405.2758 -1156.5898 -1075.2685
ENERGY: 900000 0.0000 0.0000 0.0000 0.0000 -11376.9966 1540.6703 0.0000 0.0000 1611.7722 -8224.5541 272.8156 -9836.3262 -8223.5396 270.2560 -219.1554 -134.5147 30238.8886 2.8970 3.0988
TCL: Running 1000000 steps at 300 kelvin.
TCL: Setting parameter langevinTemp to 300
TCL: Running for 1000000 steps
ETITLE: TS BOND ANGLE DIHED IMPRP ELECT VDW BOUNDARY MISC KINETIC TOTAL TEMP POTENTIAL TOTAL3 TEMPAVG PRESSURE GPRESSURE VOLUME PRESSAVG GPRESSAVG
ENERGY: 900000 0.0000 0.0000 0.0000 0.0000 -11376.9966 1540.6703 0.0000 0.0000 1610.9893 -8225.3369 272.6830 -9836.3262 -8223.2813 272.6830 -217.7909 -135.9079 30238.8886 -217.7909 -135.9079
ENERGY: 1100000 0.0000 0.0000 0.0000 0.0000 -10910.7624 1359.6760 0.0000 0.0000 1782.9163 -7768.1701 301.7841 -9551.0863 -7765.8197 299.6274 -652.0209 -648.4276 30465.3624 3.4822 3.3902
ENERGY: 1300000 0.0000 0.0000 0.0000 0.0000 -11026.3020 1496.6168 0.0000 0.0000 1805.7937 -7723.8915 305.6565 -9529.6852 -7718.4050 300.3355 215.4734 321.6615 30726.4514 3.2272 3.0796
ENERGY: 1500000 0.0000 0.0000 0.0000 0.0000 -10909.3496 1428.2134 0.0000 0.0000 1764.8565 -7716.2797 298.7273 -9481.1362 -7711.6380 300.5560 -377.5142 -332.8087 31282.8406 4.2973 4.3013
ENERGY: 1700000 0.0000 0.0000 0.0000 0.0000 -10917.2617 1446.9950 0.0000 0.0000 1750.1842 -7720.0824 296.2438 -9470.2666 -7715.9070 300.5927 -186.4771 -119.1707 31099.9463 2.5078 2.3695
ENERGY: 1900000 0.0000 0.0000 0.0000 0.0000 -10871.2988 1335.6045 0.0000 0.0000 1674.2110 -7861.4833 283.3842 -9535.6943 -7857.1008 299.6802 -1191.3591 -1169.6471 30988.2967 1.8097 1.9381
TCL: Exiting due to exit command.
