Info: SIMULATION PARAMETERS:
Info: TIMESTEP               2
Info: NUMBER OF STEPS        0
Info: STEPS PER CYCLE        10
Info: PERIODIC CELL BASIS 1  37.133 0 0
Info: PERIODIC CELL BASIS 2  0 34.26 0
Info: PERIODIC CELL BASIS 3  0 0 34.229
Info: PERIODIC CELL CENTER   0 0 0
Info: WRAPPING WATERS AROUND PERIODIC BOUNDARIES ON OUTPUT.
Info: WRAPPING ALL CLUSTERS AROUND PERIODIC BOUNDARIES ON OUTPUT.
Info: FIRST LDB TIMESTEP     50
Info: LAST LDB TIMESTEP     -1
Info: HOM BACKGROUND SCALING 1
Info: PME BACKGROUND SCALING 1
Info: MIN ATOMS PER PATCH    40
Info: EMPTY PATCH LOAD       40 ATOMS
Info: INITIAL TEMPERATURE    300
Info: CENTER OF MASS MOVING INITIALLY? NO
Info: DIELECTRIC             1
Info: EXCLUDE                SCALED ONE-FOUR
Info: 1-4 ELECTROSTATICS SCALED BY 0.833333
Info: MODIFIED 1-4 VDW PARAMETERS WILL BE USED
Info: DCD FILENAME           mobley_313406_equil.dcd
Info: DCD FREQUENCY          100000
Info: DCD FIRST STEP         100000
Info: DCD FILE WILL CONTAIN UNIT CELL DATA
Info: XST FILENAME           mobley_313406_equil.xst
Info: XST FREQUENCY          100000
Info: NO VELOCITY DCD OUTPUT
Info: NO FORCE DCD OUTPUT
Info: OUTPUT FILENAME        mobley_313406_equil
Info: BINARY OUTPUT FILES WILL BE USED
Info: RESTART FILENAME       mobley_313406_equil.restart
Info: RESTART FREQUENCY      100000
Info: BINARY RESTART FILES WILL BE USED
Info: CUTOFF                 9
Info: PAIRLIST DISTANCE      11
Info: PAIRLIST SHRINK RATE   0.01
Info: PAIRLIST GROW RATE     0.01
Info: PAIRLIST TRIGGER       0.3
Info: PAIRLISTS PER CYCLE    2
Info: PAIRLISTS ENABLED
Info: MARGIN                 8
Info: HYDROGEN GROUP CUTOFF  2.5
Info: PATCH DIMENSION        21.5
Info: ENERGY OUTPUT STEPS    100000
Info: ENERGY EVALUATION STEPS    100000
Info: OUTPUT ENERGY PRECISION 4
Info: CROSSTERM ENERGY INCLUDED IN DIHEDRAL
Info: TIMING OUTPUT STEPS    1000000
Info: PRESSURE OUTPUT STEPS  100000
Info: FIXED ATOMS ACTIVE
Info: LANGEVIN DYNAMICS ACTIVE
Info: LANGEVIN TEMPERATURE   30
Info: LANGEVIN USING BBK INTEGRATOR
Info: LANGEVIN DAMPING COEFFICIENT IS 1 INVERSE PS
Info: LANGEVIN DYNAMICS APPLIED TO HYDROGENS
Info: LANGEVIN PISTON PRESSURE CONTROL ACTIVE
Info:        TARGET PRESSURE IS 1.01325 BAR
Info:     OSCILLATION PERIOD IS 50 FS
Info:             DECAY TIME IS 25 FS
Info:     PISTON TEMPERATURE IS 300 K
Info:       PRESSURE CONTROL IS GROUP-BASED
Info:    INITIAL STRAIN RATE IS 0 0 0
Info:       CELL FLUCTUATION IS ISOTROPIC
Info: PARTICLE MESH EWALD (PME) ACTIVE
Info: PME TOLERANCE               1e-06
Info: PME EWALD COEFFICIENT       0.348832
Info: PME INTERPOLATION ORDER     4
Info: PME GRID DIMENSIONS         40 36 36
Info: PME MAXIMUM GRID SPACING    1
Info: FULL ELECTROSTATIC EVALUATION FREQUENCY      2
Info: USING VERLET I (r-RESPA) MTS SCHEME.
Info: C1 SPLITTING OF LONG RANGE ELECTROSTATICS
Info: PLACING ATOMS IN PATCHES BY HYDROGEN GROUPS
Info: RIGID BONDS TO HYDROGEN : ALL
Info:         ERROR TOLERANCE : 1e-08
Info:          MAX ITERATIONS : 100
Info: RIGID WATER USING SETTLE ALGORITHM
Info: RANDOM NUMBER SEED     1743900982
Info: USE HYDROGEN BONDS?    NO
Info: Using AMBER format force field!
Info: AMBER PARM FILE        mobley_313406.prmtop
Info: COORDINATE PDB         mobley_313406.pdb
Info: Exclusions will be read from PARM file!
Info: SCNB (VDW SCALING)     2
Info: USING ARITHMETIC MEAN TO COMBINE L-J SIGMA PARAMETERS
Info: BINARY COORDINATES     mobley_313406_min.coor
Info: SUMMARY OF PARAMETERS:
Info: 7 BONDS
Info: 8 ANGLES
Info: 6 DIHEDRAL
Info: 0 IMPROPER
Info: 0 CROSSTERM
Info: 0 VDW
Info: 21 VDW_PAIRS
Info: 0 NBTHOLE_PAIRS
Info: STRUCTURE SUMMARY:
Info: 2919 ATOMS
Info: 2918 BONDS
Info: 19 ANGLES
Info: 24 DIHEDRALS
Info: 0 IMPROPERS
Info: 0 CROSSTERMS
Info: 2958 EXCLUSIONS
Info: 12 FIXED ATOMS
Info: 2915 RIGID BONDS
Info: 8 RIGID BONDS BETWEEN FIXED ATOMS
Info: 5814 DEGREES OF FREEDOM
Info: 973 HYDROGEN GROUPS
Info: 4 ATOMS IN LARGEST HYDROGEN GROUP
Info: 973 MIGRATION GROUPS
Info: 4 ATOMS IN LARGEST MIGRATION GROUP
Info: 4 HYDROGEN GROUPS WITH ALL ATOMS FIXED
Info: TOTAL MASS = 17517.6 amu
Info: TOTAL CHARGE = 9.99756e-05 e
Info: MASS DENSITY = 0.668024 g/cm^3
Info: ATOM DENSITY = 0.0670336 atoms/A^3
Info: ADDED 0 IMPLICIT EXCLUSIONS
Info: NONBONDED TABLE R-SQUARED SPACING: 0.0625
Info: NONBONDED TABLE SIZE: 705 POINTS
Info: REMOVING COM VELOCITY 0.00783633 -0.0900813 0.0916741
TCL: Running for 100000 steps
ETITLE: TS BOND ANGLE DIHED IMPRP ELECT VDW BOUNDARY MISC KINETIC TOTAL TEMP POTENTIAL TOTAL3 TEMPAVG PRESSURE GPRESSURE VOLUME PRESSAVG GPRESSAVG
ENERGY: 0 0.0000 0.0000 0.0000 0.0000 -13505.9575 2350.7636 0.0000 0.0000 1767.2004 -9387.9935 305.9153 -11155.1939 -9387.6562 305.9153 310.9038 349.0777 43545.3322 310.9038 349.0777
ENERGY: 100000 0.0000 0.0000 0.0000 0.0000 -14023.6987 2381.6890 0.0000 0.0000 173.2371 -11468.7725 29.9886 -11642.0096 -11468.4919 30.8981 -508.6340 -492.9450 28849.5905 4.5335 4.5215
TCL: Running 100000 steps at 60 kelvin.
TCL: Setting parameter langevinTemp to 60
TCL: Running for 100000 steps
ETITLE: TS BOND ANGLE DIHED IMPRP ELECT VDW BOUNDARY MISC KINETIC TOTAL TEMP POTENTIAL TOTAL3 TEMPAVG PRESSURE GPRESSURE VOLUME PRESSAVG GPRESSAVG
ENERGY: 100000 0.0000 0.0000 0.0000 0.0000 -14023.6987 2381.6890 0.0000 0.0000 173.1534 -11468.8563 29.9741 -11642.0096 -11468.4258 29.9741 -530.2635 -493.1150 28849.5905 -530.2635 -493.1150
ENERGY: 200000 0.0000 0.0000 0.0000 0.0000 -13921.8022 2339.1225 0.0000 0.0000 340.6246 -11242.0551 58.9646 -11582.6796 -11240.8990 59.9307 -700.3143 -658.8872 28780.2851 2.7013 2.6497
TCL: Running 100000 steps at 90 kelvin.
TCL: Setting parameter langevinTemp to 90
TCL: Running for 100000 steps
ETITLE: TS BOND ANGLE DIHED IMPRP ELECT VDW BOUNDARY MISC KINETIC TOTAL TEMP POTENTIAL TOTAL3 TEMPAVG PRESSURE GPRESSURE VOLUME PRESSAVG GPRESSAVG
ENERGY: 200000 0.0000 0.0000 0.0000 0.0000 -13921.8022 2339.1225 0.0000 0.0000 340.4570 -11242.2226 58.9356 -11582.6796 -11241.3068 58.9356 -711.8413 -658.9347 28780.2851 -711.8413 -658.9347
ENERGY: 300000 0.0000 0.0000 0.0000 0.0000 -13835.8671 2361.2177 0.0000 0.0000 510.7855 -10963.8639 88.4207 -11474.6494 -10962.9369 89.8711 61.3713 136.8873 28478.7639 2.6673 2.6326
TCL: Running 100000 steps at 120 kelvin.
TCL: Setting parameter langevinTemp to 120
TCL: Running for 100000 steps
ETITLE: TS BOND ANGLE DIHED IMPRP ELECT VDW BOUNDARY MISC KINETIC TOTAL TEMP POTENTIAL TOTAL3 TEMPAVG PRESSURE GPRESSURE VOLUME PRESSAVG GPRESSAVG
ENERGY: 300000 0.0000 0.0000 0.0000 0.0000 -13835.8671 2361.2177 0.0000 0.0000 510.5347 -10964.1147 88.3773 -11474.6494 -10963.1075 88.3773 77.3235 136.9284 28478.7639 77.3235 136.9284
ENERGY: 400000 0.0000 0.0000 0.0000 0.0000 -13674.4289 2305.1468 0.0000 0.0000 680.7875 -10688.4946 117.8493 -11369.2821 -10686.3807 120.1767 101.9022 202.7556 28275.7395 3.8837 3.8839
TCL: Running 100000 steps at 150 kelvin.
TCL: Setting parameter langevinTemp to 150
TCL: Running for 100000 steps
ETITLE: TS BOND ANGLE DIHED IMPRP ELECT VDW BOUNDARY MISC KINETIC TOTAL TEMP POTENTIAL TOTAL3 TEMPAVG PRESSURE GPRESSURE VOLUME PRESSAVG GPRESSAVG
ENERGY: 400000 0.0000 0.0000 0.0000 0.0000 -13674.4289 2305.1468 0.0000 0.0000 680.4422 -10688.8399 117.7895 -11369.2821 -10687.4200 117.7895 135.0918 203.1946 28275.7395 135.0918 203.1946
ENERGY: 500000 0.0000 0.0000 0.0000 0.0000 -13469.9209 2241.1054 0.0000 0.0000 855.0059 -10373.8096 148.0078 -11228.8155 -10371.4952 149.9475 -165.6972 -143.6991 28909.2412 3.5543 3.6156
TCL: Running 100000 steps at 180 kelvin.
TCL: Setting parameter langevinTemp to 180
TCL: Running for 100000 steps
ETITLE: TS BOND ANGLE DIHED IMPRP ELECT VDW BOUNDARY MISC KINETIC TOTAL TEMP POTENTIAL TOTAL3 TEMPAVG PRESSURE GPRESSURE VOLUME PRESSAVG GPRESSAVG
ENERGY: 500000 0.0000 0.0000 0.0000 0.0000 -13469.9209 2241.1054 0.0000 0.0000 854.5781 -10374.2373 147.9337 -11228.8155 -10372.5089 147.9337 -190.4712 -143.9430 28909.2412 -190.4712 -143.9430
ENERGY: 600000 0.0000 0.0000 0.0000 0.0000 -13050.3909 2084.4498 0.0000 0.0000 1058.7664 -9907.1747 183.2802 -10965.9411 -9905.2851 179.9061 -282.6129 -237.1676 28499.8268 1.8130 2.0087
TCL: Running 100000 steps at 210 kelvin.
TCL: Setting parameter langevinTemp to 210
TCL: Running for 100000 steps
ETITLE: TS BOND ANGLE DIHED IMPRP ELECT VDW BOUNDARY MISC KINETIC TOTAL TEMP POTENTIAL TOTAL3 TEMPAVG PRESSURE GPRESSURE VOLUME PRESSAVG GPRESSAVG
ENERGY: 600000 0.0000 0.0000 0.0000 0.0000 -13050.3909 2084.4498 0.0000 0.0000 1058.2559 -9907.6852 183.1918 -10965.9411 -9905.5579 183.1918 -292.8337 -236.6707 28499.8268 -292.8337 -236.6707
ENERGY: 700000 0.0000 0.0000 0.0000 0.0000 -12463.0916 1940.3439 0.0000 0.0000 1209.8995 -9312.8482 209.4424 -10522.7477 -9311.1226 209.8913 40.8652 137.5267 28700.4135 3.7374 3.7524
TCL: Running 100000 steps at 240 kelvin.
TCL: Setting parameter langevinTemp to 240
TCL: Running for 100000 steps
ETITLE: TS BOND ANGLE DIHED IMPRP ELECT VDW BOUNDARY MISC KINETIC TOTAL TEMP POTENTIAL TOTAL3 TEMPAVG PRESSURE GPRESSURE VOLUME PRESSAVG GPRESSAVG
ENERGY: 700000 0.0000 0.0000 0.0000 0.0000 -12463.0916 1940.3439 0.0000 0.0000 1209.2889 -9313.4588 209.3367 -10522.7477 -9311.4239 209.3367 60.3383 135.1830 28700.4135 60.3383 135.1830
ENERGY: 800000 0.0000 0.0000 0.0000 0.0000 -11748.5090 1689.6064 0.0000 0.0000 1401.1944 -8657.7082 242.5570 -10058.9027 -8654.1010 240.0691 -384.2308 -272.6650 28929.9714 2.6376 2.7674
TCL: Running 100000 steps at 270 kelvin.
TCL: Setting parameter langevinTemp to 270
TCL: Running for 100000 steps
ETITLE: TS BOND ANGLE DIHED IMPRP ELECT VDW BOUNDARY MISC KINETIC TOTAL TEMP POTENTIAL TOTAL3 TEMPAVG PRESSURE GPRESSURE VOLUME PRESSAVG GPRESSAVG
ENERGY: 800000 0.0000 0.0000 0.0000 0.0000 -11748.5090 1689.6064 0.0000 0.0000 1400.5099 -8658.3927 242.4385 -10058.9027 -8656.0655 242.4385 -363.3293 -270.7804 28929.9714 -363.3293 -270.7804
ENERGY: 900000 0.0000 0.0000 0.0000 0.0000 -11161.7250 1572.3905 0.0000 0.0000 1556.0294 -8033.3051 269.3600 -9589.3345 -8029.5798 270.0794 29.2837 137.8970 29408.3509 3.2794 3.3010
TCL: Running 1000000 steps at 300 kelvin.
TCL: Setting parameter langevinTemp to 300
TCL: Running for 1000000 steps
ETITLE: TS BOND ANGLE DIHED IMPRP ELECT VDW BOUNDARY MISC KINETIC TOTAL TEMP POTENTIAL TOTAL3 TEMPAVG PRESSURE GPRESSURE VOLUME PRESSAVG GPRESSAVG
ENERGY: 900000 0.0000 0.0000 0.0000 0.0000 -11161.7250 1572.3905 0.0000 0.0000 1555.2193 -8034.1152 269.2198 -9589.3345 -8032.2207 269.2198 47.2988 137.2507 29408.3509 47.2988 137.2507
ENERGY: 1100000 0.0000 0.0000 0.0000 0.0000 -10488.2347 1335.4439 0.0000 0.0000 1727.4102 -7425.3806 299.0273 -9152.7908 -7421.2466 300.0616 -639.9076 -535.8126 30282.7528 4.2612 4.2083
ENERGY: 1300000 0.0000 0.0000 0.0000 0.0000 -10788.2691 1472.6793 0.0000 0.0000 1731.1505 -7584.4393 299.6748 -9315.5898 -7581.5796 299.9902 399.7043 464.6945 29431.3683 3.3425 3.4172
ENERGY: 1500000 0.0000 0.0000 0.0000 0.0000 -10599.8568 1449.8813 0.0000 0.0000 1717.7771 -7432.1984 297.3597 -9149.9755 -7428.7305 300.6160 391.1211 470.0459 29957.5670 3.4015 3.3226
ENERGY: 1700000 0.0000 0.0000 0.0000 0.0000 -10600.5213 1430.0375 0.0000 0.0000 1714.4862 -7455.9976 296.7901 -9170.4838 -7453.2030 300.1350 -46.8590 23.9142 30158.4240 3.0204 3.0311
ENERGY: 1900000 0.0000 0.0000 0.0000 0.0000 -10655.0665 1382.5991 0.0000 0.0000 1686.9186 -7585.5488 292.0179 -9272.4674 -7583.1620 300.5536 -534.3182 -462.7848 29800.7137 3.5410 3.3146
TCL: Exiting due to exit command.
