Info: SIMULATION PARAMETERS:
Info: TIMESTEP               2
Info: NUMBER OF STEPS        0
Info: STEPS PER CYCLE        10
Info: PERIODIC CELL BASIS 1  36.592 0 0
Info: PERIODIC CELL BASIS 2  0 35.411 0
Info: PERIODIC CELL BASIS 3  0 0 34.68
Info: PERIODIC CELL CENTER   0 0 0
Info: WRAPPING WATERS AROUND PERIODIC BOUNDARIES ON OUTPUT.
Info: WRAPPING ALL CLUSTERS AROUND PERIODIC BOUNDARIES ON OUTPUT.
Info: FIRST LDB TIMESTEP     50
Info: LAST LDB TIMESTEP     -1
Info: HOM BACKGROUND SCALING 1
Info: PME BACKGROUND SCALING 1
Info: MIN ATOMS PER PATCH    40
Info: EMPTY PATCH LOAD       40 ATOMS
Info: INITIAL TEMPERATURE    300
Info: CENTER OF MASS MOVING INITIALLY? NO
Info: DIELECTRIC             1
Info: EXCLUDE                SCALED ONE-FOUR
Info: 1-4 ELECTROSTATICS SCALED BY 0.833333
Info: MODIFIED 1-4 VDW PARAMETERS WILL BE USED
Info: DCD FILENAME           mobley_9201263_equil.dcd
Info: DCD FREQUENCY          100000
Info: DCD FIRST STEP         100000
Info: DCD FILE WILL CONTAIN UNIT CELL DATA
Info: XST FILENAME           mobley_9201263_equil.xst
Info: XST FREQUENCY          100000
Info: NO VELOCITY DCD OUTPUT
Info: NO FORCE DCD OUTPUT
Info: OUTPUT FILENAME        mobley_9201263_equil
Info: BINARY OUTPUT FILES WILL BE USED
Info: RESTART FILENAME       mobley_9201263_equil.restart
Info: RESTART FREQUENCY      100000
Info: BINARY RESTART FILES WILL BE USED
Info: CUTOFF                 9
Info: PAIRLIST DISTANCE      11
Info: PAIRLIST SHRINK RATE   0.01
Info: PAIRLIST GROW RATE     0.01
Info: PAIRLIST TRIGGER       0.3
Info: PAIRLISTS PER CYCLE    2
Info: PAIRLISTS ENABLED
Info: MARGIN                 8
Info: HYDROGEN GROUP CUTOFF  2.5
Info: PATCH DIMENSION        21.5
Info: ENERGY OUTPUT STEPS    100000
Info: ENERGY EVALUATION STEPS    100000
Info: OUTPUT ENERGY PRECISION 4
Info: CROSSTERM ENERGY INCLUDED IN DIHEDRAL
Info: TIMING OUTPUT STEPS    1000000
Info: PRESSURE OUTPUT STEPS  100000
Info: FIXED ATOMS ACTIVE
Info: LANGEVIN DYNAMICS ACTIVE
Info: LANGEVIN TEMPERATURE   30
Info: LANGEVIN USING BBK INTEGRATOR
Info: LANGEVIN DAMPING COEFFICIENT IS 1 INVERSE PS
Info: LANGEVIN DYNAMICS APPLIED TO HYDROGENS
Info: LANGEVIN PISTON PRESSURE CONTROL ACTIVE
Info:        TARGET PRESSURE IS 1.01325 BAR
Info:     OSCILLATION PERIOD IS 50 FS
Info:             DECAY TIME IS 25 FS
Info:     PISTON TEMPERATURE IS 300 K
Info:       PRESSURE CONTROL IS GROUP-BASED
Info:    INITIAL STRAIN RATE IS 0 0 0
Info:       CELL FLUCTUATION IS ISOTROPIC
Info: PARTICLE MESH EWALD (PME) ACTIVE
Info: PME TOLERANCE               1e-06
Info: PME EWALD COEFFICIENT       0.348832
Info: PME INTERPOLATION ORDER     4
Info: PME GRID DIMENSIONS         40 36 36
Info: PME MAXIMUM GRID SPACING    1
Info: FULL ELECTROSTATIC EVALUATION FREQUENCY      2
Info: USING VERLET I (r-RESPA) MTS SCHEME.
Info: C1 SPLITTING OF LONG RANGE ELECTROSTATICS
Info: PLACING ATOMS IN PATCHES BY HYDROGEN GROUPS
Info: RIGID BONDS TO HYDROGEN : ALL
Info:         ERROR TOLERANCE : 1e-08
Info:          MAX ITERATIONS : 100
Info: RIGID WATER USING SETTLE ALGORITHM
Info: RANDOM NUMBER SEED     1744720986
Info: USE HYDROGEN BONDS?    NO
Info: Using AMBER format force field!
Info: AMBER PARM FILE        mobley_9201263.prmtop
Info: COORDINATE PDB         mobley_9201263.pdb
Info: Exclusions will be read from PARM file!
Info: SCNB (VDW SCALING)     2
Info: USING ARITHMETIC MEAN TO COMBINE L-J SIGMA PARAMETERS
Info: BINARY COORDINATES     mobley_9201263_min.coor
Info: SUMMARY OF PARAMETERS:
Info: 7 BONDS
Info: 8 ANGLES
Info:   8 HARMONIC
Info:   0 COSINE-BASED
Info: 3 DIHEDRAL
Info: 0 IMPROPER
Info: 0 CROSSTERM
Info: 0 VDW
Info: 28 VDW_PAIRS
Info: 0 NBTHOLE_PAIRS
Info: STRUCTURE SUMMARY:
Info: 2982 ATOMS
Info: 2981 BONDS
Info: 19 ANGLES
Info: 15 DIHEDRALS
Info: 0 IMPROPERS
Info: 0 CROSSTERMS
Info: 3015 EXCLUSIONS
Info: 12 FIXED ATOMS
Info: 2976 RIGID BONDS
Info: 6 RIGID BONDS BETWEEN FIXED ATOMS
Info: 5940 DEGREES OF FREEDOM
Info: 996 HYDROGEN GROUPS
Info: 4 ATOMS IN LARGEST HYDROGEN GROUP
Info: 996 MIGRATION GROUPS
Info: 4 ATOMS IN LARGEST MIGRATION GROUP
Info: 6 HYDROGEN GROUPS WITH ALL ATOMS FIXED
Info: TOTAL MASS = 17946 amu
Info: TOTAL CHARGE = 0.000399966 e
Info: MASS DENSITY = 0.663167 g/cm^3
Info: ATOM DENSITY = 0.0663597 atoms/A^3
Info: ADDED 0 IMPLICIT EXCLUSIONS
Info: NONBONDED TABLE R-SQUARED SPACING: 0.0625
Info: NONBONDED TABLE SIZE: 705 POINTS
Info: REMOVING COM VELOCITY -0.113948 -0.0184848 0.0921345
TCL: Running for 100000 steps
ETITLE: TS BOND ANGLE DIHED IMPRP ELECT VDW BOUNDARY MISC KINETIC TOTAL TEMP POTENTIAL TOTAL3 TEMPAVG PRESSURE GPRESSURE VOLUME PRESSAVG GPRESSAVG
ENERGY: 0 0.0000 0.0000 0.0000 0.0000 -14057.6472 2444.5129 0.0000 0.0000 1805.6989 -9807.4354 305.9492 -11613.1344 -9807.0857 305.9492 606.9552 643.3688 44936.9329 606.9552 643.3688
ENERGY: 100000 0.0000 0.0000 0.0000 0.0000 -14605.0648 2424.8963 0.0000 0.0000 175.0332 -12005.1353 29.6568 -12180.1685 -12004.4147 30.8928 -633.5397 -584.7507 28962.9883 2.7204 2.6484
TCL: Running 100000 steps at 60 kelvin.
TCL: Setting parameter langevinTemp to 60
TCL: Running for 100000 steps
ETITLE: TS BOND ANGLE DIHED IMPRP ELECT VDW BOUNDARY MISC KINETIC TOTAL TEMP POTENTIAL TOTAL3 TEMPAVG PRESSURE GPRESSURE VOLUME PRESSAVG GPRESSAVG
ENERGY: 100000 0.0000 0.0000 0.0000 0.0000 -14605.0648 2424.8963 0.0000 0.0000 174.9408 -12005.2277 29.6412 -12180.1685 -12004.7842 29.6412 -620.0007 -584.4982 28962.9883 -620.0007 -584.4982
ENERGY: 200000 0.0000 0.0000 0.0000 0.0000 -14443.7701 2369.1465 0.0000 0.0000 362.4483 -11712.1754 61.4115 -12074.6237 -11711.0356 60.1124 -611.6104 -544.8370 28869.9914 4.0921 4.0798
TCL: Running 100000 steps at 90 kelvin.
TCL: Setting parameter langevinTemp to 90
TCL: Running for 100000 steps
ETITLE: TS BOND ANGLE DIHED IMPRP ELECT VDW BOUNDARY MISC KINETIC TOTAL TEMP POTENTIAL TOTAL3 TEMPAVG PRESSURE GPRESSURE VOLUME PRESSAVG GPRESSAVG
ENERGY: 200000 0.0000 0.0000 0.0000 0.0000 -14443.7701 2369.1465 0.0000 0.0000 362.2710 -11712.3527 61.3815 -12074.6237 -11711.5260 61.3815 -596.9496 -544.2589 28869.9914 -596.9496 -544.2589
ENERGY: 300000 0.0000 0.0000 0.0000 0.0000 -14336.7714 2345.5112 0.0000 0.0000 551.3492 -11439.9110 93.4180 -11991.2602 -11437.5360 90.0022 -553.3071 -511.4181 28923.3648 3.7472 3.8272
TCL: Running 100000 steps at 120 kelvin.
TCL: Setting parameter langevinTemp to 120
TCL: Running for 100000 steps
ETITLE: TS BOND ANGLE DIHED IMPRP ELECT VDW BOUNDARY MISC KINETIC TOTAL TEMP POTENTIAL TOTAL3 TEMPAVG PRESSURE GPRESSURE VOLUME PRESSAVG GPRESSAVG
ENERGY: 300000 0.0000 0.0000 0.0000 0.0000 -14336.7714 2345.5112 0.0000 0.0000 551.0895 -11440.1707 93.3740 -11991.2602 -11439.0365 93.3740 -555.1177 -510.1689 28923.3648 -555.1177 -510.1689
ENERGY: 400000 0.0000 0.0000 0.0000 0.0000 -14196.6273 2333.6236 0.0000 0.0000 703.4977 -11159.5060 119.1974 -11863.0037 -11156.4415 120.2724 -189.0077 -131.3431 28919.9766 3.8428 3.7457
TCL: Running 100000 steps at 150 kelvin.
TCL: Setting parameter langevinTemp to 150
TCL: Running for 100000 steps
ETITLE: TS BOND ANGLE DIHED IMPRP ELECT VDW BOUNDARY MISC KINETIC TOTAL TEMP POTENTIAL TOTAL3 TEMPAVG PRESSURE GPRESSURE VOLUME PRESSAVG GPRESSAVG
ENERGY: 400000 0.0000 0.0000 0.0000 0.0000 -14196.6273 2333.6236 0.0000 0.0000 703.1382 -11159.8655 119.1364 -11863.0037 -11158.3593 119.1364 -184.1880 -130.0680 28919.9766 -184.1880 -130.0680
ENERGY: 500000 0.0000 0.0000 0.0000 0.0000 -13781.8544 2142.0589 0.0000 0.0000 881.5143 -10758.2812 149.3597 -11639.7955 -10756.1311 149.9314 -953.4234 -926.8264 29323.3318 3.9058 3.9890
TCL: Running 100000 steps at 180 kelvin.
TCL: Setting parameter langevinTemp to 180
TCL: Running for 100000 steps
ETITLE: TS BOND ANGLE DIHED IMPRP ELECT VDW BOUNDARY MISC KINETIC TOTAL TEMP POTENTIAL TOTAL3 TEMPAVG PRESSURE GPRESSURE VOLUME PRESSAVG GPRESSAVG
ENERGY: 500000 0.0000 0.0000 0.0000 0.0000 -13781.8544 2142.0589 0.0000 0.0000 881.0728 -10758.7227 149.2848 -11639.7955 -10757.0004 149.2848 -984.9917 -927.6950 29323.3318 -984.9917 -927.6950
ENERGY: 600000 0.0000 0.0000 0.0000 0.0000 -13570.9284 2159.1281 0.0000 0.0000 1066.6927 -10345.1076 180.7354 -11411.8003 -10342.8853 180.1943 -139.1164 -59.7490 29393.4952 3.2799 3.4690
TCL: Running 100000 steps at 210 kelvin.
TCL: Setting parameter langevinTemp to 210
TCL: Running for 100000 steps
ETITLE: TS BOND ANGLE DIHED IMPRP ELECT VDW BOUNDARY MISC KINETIC TOTAL TEMP POTENTIAL TOTAL3 TEMPAVG PRESSURE GPRESSURE VOLUME PRESSAVG GPRESSAVG
ENERGY: 600000 0.0000 0.0000 0.0000 0.0000 -13570.9284 2159.1281 0.0000 0.0000 1066.1712 -10345.6291 180.6471 -11411.8003 -10343.4743 180.6471 -118.9516 -60.0680 29393.4952 -118.9516 -60.0680
ENERGY: 700000 0.0000 0.0000 0.0000 0.0000 -12907.2719 1949.2949 0.0000 0.0000 1249.7213 -9708.2557 211.7469 -10957.9771 -9705.7614 210.1650 -90.8633 -30.7098 29339.1992 3.8128 3.7020
TCL: Running 100000 steps at 240 kelvin.
TCL: Setting parameter langevinTemp to 240
TCL: Running for 100000 steps
ETITLE: TS BOND ANGLE DIHED IMPRP ELECT VDW BOUNDARY MISC KINETIC TOTAL TEMP POTENTIAL TOTAL3 TEMPAVG PRESSURE GPRESSURE VOLUME PRESSAVG GPRESSAVG
ENERGY: 700000 0.0000 0.0000 0.0000 0.0000 -12907.2719 1949.2949 0.0000 0.0000 1249.0912 -9708.8859 211.6402 -10957.9771 -9707.0478 211.6402 -98.3350 -30.6499 29339.1992 -98.3350 -30.6499
ENERGY: 800000 0.0000 0.0000 0.0000 0.0000 -12201.1467 1763.0625 0.0000 0.0000 1409.5514 -9028.5328 238.8278 -10438.0842 -9024.4604 240.3064 391.3794 424.1806 29222.6844 3.0168 2.8940
TCL: Running 100000 steps at 270 kelvin.
TCL: Setting parameter langevinTemp to 270
TCL: Running for 100000 steps
ETITLE: TS BOND ANGLE DIHED IMPRP ELECT VDW BOUNDARY MISC KINETIC TOTAL TEMP POTENTIAL TOTAL3 TEMPAVG PRESSURE GPRESSURE VOLUME PRESSAVG GPRESSAVG
ENERGY: 800000 0.0000 0.0000 0.0000 0.0000 -12201.1467 1763.0625 0.0000 0.0000 1408.8324 -9029.2517 238.7060 -10438.0842 -9026.9484 238.7060 332.9599 424.8923 29222.6844 332.9599 424.8923
ENERGY: 900000 0.0000 0.0000 0.0000 0.0000 -11612.9363 1616.7848 0.0000 0.0000 1530.5443 -8465.6071 259.3283 -9996.1514 -8461.7487 269.8286 347.7503 490.7315 29843.9375 4.0808 3.9534
TCL: Running 1000000 steps at 300 kelvin.
TCL: Setting parameter langevinTemp to 300
TCL: Running for 1000000 steps
ETITLE: TS BOND ANGLE DIHED IMPRP ELECT VDW BOUNDARY MISC KINETIC TOTAL TEMP POTENTIAL TOTAL3 TEMPAVG PRESSURE GPRESSURE VOLUME PRESSAVG GPRESSAVG
ENERGY: 900000 0.0000 0.0000 0.0000 0.0000 -11612.9363 1616.7848 0.0000 0.0000 1529.7649 -8466.3866 259.1962 -9996.1514 -8464.6285 259.1962 417.7781 491.6066 29843.9375 417.7781 491.6066
ENERGY: 1100000 0.0000 0.0000 0.0000 0.0000 -11019.1453 1384.2194 0.0000 0.0000 1709.0148 -7925.9111 289.5675 -9634.9258 -7921.6373 300.2961 -636.2849 -558.3113 30858.1019 3.4159 3.2139
ENERGY: 1300000 0.0000 0.0000 0.0000 0.0000 -11065.1295 1522.1238 0.0000 0.0000 1799.9568 -7743.0488 304.9763 -9543.0056 -7743.3217 299.8138 524.5780 570.0229 31200.9229 4.3351 4.3512
ENERGY: 1500000 0.0000 0.0000 0.0000 0.0000 -11220.1721 1498.6697 0.0000 0.0000 1764.4690 -7957.0334 298.9634 -9721.5024 -7957.4780 300.3416 17.7148 123.1603 30639.0268 3.6853 3.5648
ENERGY: 1700000 0.0000 0.0000 0.0000 0.0000 -11152.3762 1494.0468 0.0000 0.0000 1743.3274 -7915.0020 295.3812 -9658.3294 -7910.2816 300.0366 -120.3870 37.4631 31301.6770 4.8939 4.7847
ENERGY: 1900000 0.0000 0.0000 0.0000 0.0000 -10960.8215 1388.4064 0.0000 0.0000 1819.2606 -7753.1545 308.2470 -9572.4151 -7748.1593 300.4417 -353.9266 -193.2634 30794.5831 3.1263 2.9603
TCL: Exiting due to exit command.
