Info: SIMULATION PARAMETERS:
Info: TIMESTEP               2
Info: NUMBER OF STEPS        0
Info: STEPS PER CYCLE        10
Info: PERIODIC CELL BASIS 1  37.435 0 0
Info: PERIODIC CELL BASIS 2  0 33.542 0
Info: PERIODIC CELL BASIS 3  0 0 34.68
Info: PERIODIC CELL CENTER   0 0 0
Info: WRAPPING WATERS AROUND PERIODIC BOUNDARIES ON OUTPUT.
Info: WRAPPING ALL CLUSTERS AROUND PERIODIC BOUNDARIES ON OUTPUT.
Info: FIRST LDB TIMESTEP     50
Info: LAST LDB TIMESTEP     -1
Info: HOM BACKGROUND SCALING 1
Info: PME BACKGROUND SCALING 1
Info: MIN ATOMS PER PATCH    40
Info: EMPTY PATCH LOAD       40 ATOMS
Info: INITIAL TEMPERATURE    300
Info: CENTER OF MASS MOVING INITIALLY? NO
Info: DIELECTRIC             1
Info: EXCLUDE                SCALED ONE-FOUR
Info: 1-4 ELECTROSTATICS SCALED BY 0.833333
Info: MODIFIED 1-4 VDW PARAMETERS WILL BE USED
Info: DCD FILENAME           mobley_3746675_equil.dcd
Info: DCD FREQUENCY          100000
Info: DCD FIRST STEP         100000
Info: DCD FILE WILL CONTAIN UNIT CELL DATA
Info: XST FILENAME           mobley_3746675_equil.xst
Info: XST FREQUENCY          100000
Info: NO VELOCITY DCD OUTPUT
Info: NO FORCE DCD OUTPUT
Info: OUTPUT FILENAME        mobley_3746675_equil
Info: BINARY OUTPUT FILES WILL BE USED
Info: RESTART FILENAME       mobley_3746675_equil.restart
Info: RESTART FREQUENCY      100000
Info: BINARY RESTART FILES WILL BE USED
Info: CUTOFF                 9
Info: PAIRLIST DISTANCE      11
Info: PAIRLIST SHRINK RATE   0.01
Info: PAIRLIST GROW RATE     0.01
Info: PAIRLIST TRIGGER       0.3
Info: PAIRLISTS PER CYCLE    2
Info: PAIRLISTS ENABLED
Info: MARGIN                 8
Info: HYDROGEN GROUP CUTOFF  2.5
Info: PATCH DIMENSION        21.5
Info: ENERGY OUTPUT STEPS    100000
Info: ENERGY EVALUATION STEPS    100000
Info: OUTPUT ENERGY PRECISION 4
Info: CROSSTERM ENERGY INCLUDED IN DIHEDRAL
Info: TIMING OUTPUT STEPS    1000000
Info: PRESSURE OUTPUT STEPS  100000
Info: FIXED ATOMS ACTIVE
Info: LANGEVIN DYNAMICS ACTIVE
Info: LANGEVIN TEMPERATURE   30
Info: LANGEVIN USING BBK INTEGRATOR
Info: LANGEVIN DAMPING COEFFICIENT IS 1 INVERSE PS
Info: LANGEVIN DYNAMICS APPLIED TO HYDROGENS
Info: LANGEVIN PISTON PRESSURE CONTROL ACTIVE
Info:        TARGET PRESSURE IS 1.01325 BAR
Info:     OSCILLATION PERIOD IS 50 FS
Info:             DECAY TIME IS 25 FS
Info:     PISTON TEMPERATURE IS 300 K
Info:       PRESSURE CONTROL IS GROUP-BASED
Info:    INITIAL STRAIN RATE IS 0 0 0
Info:       CELL FLUCTUATION IS ISOTROPIC
Info: PARTICLE MESH EWALD (PME) ACTIVE
Info: PME TOLERANCE               1e-06
Info: PME EWALD COEFFICIENT       0.348832
Info: PME INTERPOLATION ORDER     4
Info: PME GRID DIMENSIONS         40 36 36
Info: PME MAXIMUM GRID SPACING    1
Info: FULL ELECTROSTATIC EVALUATION FREQUENCY      2
Info: USING VERLET I (r-RESPA) MTS SCHEME.
Info: C1 SPLITTING OF LONG RANGE ELECTROSTATICS
Info: PLACING ATOMS IN PATCHES BY HYDROGEN GROUPS
Info: RIGID BONDS TO HYDROGEN : ALL
Info:         ERROR TOLERANCE : 1e-08
Info:          MAX ITERATIONS : 100
Info: RIGID WATER USING SETTLE ALGORITHM
Info: RANDOM NUMBER SEED     1744094741
Info: USE HYDROGEN BONDS?    NO
Info: Using AMBER format force field!
Info: AMBER PARM FILE        mobley_3746675.prmtop
Info: COORDINATE PDB         mobley_3746675.pdb
Info: Exclusions will be read from PARM file!
Info: SCNB (VDW SCALING)     2
Info: USING ARITHMETIC MEAN TO COMBINE L-J SIGMA PARAMETERS
Info: BINARY COORDINATES     mobley_3746675_min.coor
Info: SUMMARY OF PARAMETERS:
Info: 9 BONDS
Info: 10 ANGLES
Info:   10 HARMONIC
Info:   0 COSINE-BASED
Info: 6 DIHEDRAL
Info: 0 IMPROPER
Info: 0 CROSSTERM
Info: 0 VDW
Info: 21 VDW_PAIRS
Info: 0 NBTHOLE_PAIRS
Info: STRUCTURE SUMMARY:
Info: 2983 ATOMS
Info: 2983 BONDS
Info: 30 ANGLES
Info: 52 DIHEDRALS
Info: 0 IMPROPERS
Info: 0 CROSSTERMS
Info: 3048 EXCLUSIONS
Info: 19 FIXED ATOMS
Info: 2974 RIGID BONDS
Info: 10 RIGID BONDS BETWEEN FIXED ATOMS
Info: 5928 DEGREES OF FREEDOM
Info: 997 HYDROGEN GROUPS
Info: 4 ATOMS IN LARGEST HYDROGEN GROUP
Info: 997 MIGRATION GROUPS
Info: 4 ATOMS IN LARGEST MIGRATION GROUP
Info: 9 HYDROGEN GROUPS WITH ALL ATOMS FIXED
Info: TOTAL MASS = 17918 amu
Info: TOTAL CHARGE = 0.000199996 e
Info: MASS DENSITY = 0.683286 g/cm^3
Info: ATOM DENSITY = 0.0685027 atoms/A^3
Info: ADDED 0 IMPLICIT EXCLUSIONS
Info: NONBONDED TABLE R-SQUARED SPACING: 0.0625
Info: NONBONDED TABLE SIZE: 705 POINTS
Info: REMOVING COM VELOCITY -0.00163519 -0.0793169 -0.0519976
TCL: Running for 100000 steps
ETITLE: TS BOND ANGLE DIHED IMPRP ELECT VDW BOUNDARY MISC KINETIC TOTAL TEMP POTENTIAL TOTAL3 TEMPAVG PRESSURE GPRESSURE VOLUME PRESSAVG GPRESSAVG
ENERGY: 0 0.0000 0.0000 0.0000 0.0000 -13800.2838 2399.5088 0.0000 0.0000 1754.5064 -9646.2687 297.8771 -11400.7750 -9645.9465 297.8771 202.4331 250.6798 43545.7606 202.4331 250.6798
ENERGY: 100000 0.0000 0.0000 0.0000 0.0000 -14365.5181 2538.5631 0.0000 0.0000 179.7582 -11647.1967 30.5191 -11826.9549 -11646.8519 30.8808 523.9071 588.6463 29134.6795 3.7112 3.7253
TCL: Running 100000 steps at 60 kelvin.
TCL: Setting parameter langevinTemp to 60
TCL: Running for 100000 steps
ETITLE: TS BOND ANGLE DIHED IMPRP ELECT VDW BOUNDARY MISC KINETIC TOTAL TEMP POTENTIAL TOTAL3 TEMPAVG PRESSURE GPRESSURE VOLUME PRESSAVG GPRESSAVG
ENERGY: 100000 0.0000 0.0000 0.0000 0.0000 -14365.5181 2538.5631 0.0000 0.0000 179.6698 -11647.2851 30.5040 -11826.9549 -11646.9822 30.5040 538.9116 588.5444 29134.6795 538.9116 588.5444
ENERGY: 200000 0.0000 0.0000 0.0000 0.0000 -14308.5093 2518.3723 0.0000 0.0000 346.1807 -11443.9563 58.7740 -11790.1370 -11442.7993 59.7987 773.6306 802.5214 28666.5177 3.3198 3.2781
TCL: Running 100000 steps at 90 kelvin.
TCL: Setting parameter langevinTemp to 90
TCL: Running for 100000 steps
ETITLE: TS BOND ANGLE DIHED IMPRP ELECT VDW BOUNDARY MISC KINETIC TOTAL TEMP POTENTIAL TOTAL3 TEMPAVG PRESSURE GPRESSURE VOLUME PRESSAVG GPRESSAVG
ENERGY: 200000 0.0000 0.0000 0.0000 0.0000 -14308.5093 2518.3723 0.0000 0.0000 346.0071 -11444.1299 58.7445 -11790.1370 -11443.4893 58.7445 759.5861 803.1181 28666.5177 759.5861 803.1181
ENERGY: 300000 0.0000 0.0000 0.0000 0.0000 -14050.7782 2344.6829 0.0000 0.0000 523.0973 -11182.9980 88.8106 -11706.0953 -11181.9780 89.9174 -568.1953 -504.4737 29135.1696 4.8459 4.8570
TCL: Running 100000 steps at 120 kelvin.
TCL: Setting parameter langevinTemp to 120
TCL: Running for 100000 steps
ETITLE: TS BOND ANGLE DIHED IMPRP ELECT VDW BOUNDARY MISC KINETIC TOTAL TEMP POTENTIAL TOTAL3 TEMPAVG PRESSURE GPRESSURE VOLUME PRESSAVG GPRESSAVG
ENERGY: 300000 0.0000 0.0000 0.0000 0.0000 -14050.7782 2344.6829 0.0000 0.0000 522.8417 -11183.2536 88.7672 -11706.0953 -11181.9929 88.7672 -555.9638 -504.4575 29135.1696 -555.9638 -504.4575
ENERGY: 400000 0.0000 0.0000 0.0000 0.0000 -13921.1032 2360.5127 0.0000 0.0000 693.2508 -10867.3397 117.6989 -11560.5905 -10866.1520 119.7805 9.5899 20.9095 29303.8610 3.4971 3.4240
TCL: Running 100000 steps at 150 kelvin.
TCL: Setting parameter langevinTemp to 150
TCL: Running for 100000 steps
ETITLE: TS BOND ANGLE DIHED IMPRP ELECT VDW BOUNDARY MISC KINETIC TOTAL TEMP POTENTIAL TOTAL3 TEMPAVG PRESSURE GPRESSURE VOLUME PRESSAVG GPRESSAVG
ENERGY: 400000 0.0000 0.0000 0.0000 0.0000 -13921.1032 2360.5127 0.0000 0.0000 692.8817 -10867.7088 117.6363 -11560.5905 -10866.6579 117.6363 -26.5992 20.4311 29303.8610 -26.5992 20.4311
ENERGY: 500000 0.0000 0.0000 0.0000 0.0000 -13550.4322 2170.2968 0.0000 0.0000 855.4860 -10524.6493 145.2430 -11380.1354 -10522.4743 149.9762 -1028.3163 -924.8915 29618.8230 4.1192 4.1260
TCL: Running 100000 steps at 180 kelvin.
TCL: Setting parameter langevinTemp to 180
TCL: Running for 100000 steps
ETITLE: TS BOND ANGLE DIHED IMPRP ELECT VDW BOUNDARY MISC KINETIC TOTAL TEMP POTENTIAL TOTAL3 TEMPAVG PRESSURE GPRESSURE VOLUME PRESSAVG GPRESSAVG
ENERGY: 500000 0.0000 0.0000 0.0000 0.0000 -13550.4322 2170.2968 0.0000 0.0000 855.0233 -10525.1121 145.1644 -11380.1354 -10523.0344 145.1644 -989.9631 -925.1996 29618.8230 -989.9631 -925.1996
ENERGY: 600000 0.0000 0.0000 0.0000 0.0000 -13424.9898 2228.1365 0.0000 0.0000 1076.0796 -10120.7737 182.6950 -11196.8533 -10118.1109 180.2514 367.5096 458.3689 29079.2316 3.6013 3.5856
TCL: Running 100000 steps at 210 kelvin.
TCL: Setting parameter langevinTemp to 210
TCL: Running for 100000 steps
ETITLE: TS BOND ANGLE DIHED IMPRP ELECT VDW BOUNDARY MISC KINETIC TOTAL TEMP POTENTIAL TOTAL3 TEMPAVG PRESSURE GPRESSURE VOLUME PRESSAVG GPRESSAVG
ENERGY: 600000 0.0000 0.0000 0.0000 0.0000 -13424.9898 2228.1365 0.0000 0.0000 1075.5489 -10121.3044 182.6049 -11196.8533 -10119.4412 182.6049 400.7487 460.6460 29079.2316 400.7487 460.6460
ENERGY: 700000 0.0000 0.0000 0.0000 0.0000 -12612.7630 1910.3192 0.0000 0.0000 1248.4328 -9454.0109 211.9568 -10702.4438 -9450.3949 209.5637 -126.9015 -52.0800 28817.6963 4.5766 4.4385
TCL: Running 100000 steps at 240 kelvin.
TCL: Setting parameter langevinTemp to 240
TCL: Running for 100000 steps
ETITLE: TS BOND ANGLE DIHED IMPRP ELECT VDW BOUNDARY MISC KINETIC TOTAL TEMP POTENTIAL TOTAL3 TEMPAVG PRESSURE GPRESSURE VOLUME PRESSAVG GPRESSAVG
ENERGY: 700000 0.0000 0.0000 0.0000 0.0000 -12612.7630 1910.3192 0.0000 0.0000 1247.8092 -9454.6345 211.8509 -10702.4438 -9452.6269 211.8509 -131.9467 -50.5756 28817.6963 -131.9467 -50.5756
ENERGY: 800000 0.0000 0.0000 0.0000 0.0000 -11952.5790 1756.3655 0.0000 0.0000 1468.3128 -8727.9007 249.2877 -10196.2136 -8725.0906 239.7427 -46.4972 92.6340 29624.1159 4.8013 4.7898
TCL: Running 100000 steps at 270 kelvin.
TCL: Setting parameter langevinTemp to 270
TCL: Running for 100000 steps
ETITLE: TS BOND ANGLE DIHED IMPRP ELECT VDW BOUNDARY MISC KINETIC TOTAL TEMP POTENTIAL TOTAL3 TEMPAVG PRESSURE GPRESSURE VOLUME PRESSAVG GPRESSAVG
ENERGY: 800000 0.0000 0.0000 0.0000 0.0000 -11952.5790 1756.3655 0.0000 0.0000 1467.5947 -8728.6188 249.1657 -10196.2136 -8726.7850 249.1657 1.3147 94.6626 29624.1159 1.3147 94.6626
ENERGY: 900000 0.0000 0.0000 0.0000 0.0000 -11449.2251 1638.4756 0.0000 0.0000 1585.2116 -8225.5380 269.1345 -9810.7495 -8221.5904 270.6116 264.8696 335.3557 30022.5587 4.0845 4.1029
TCL: Running 1000000 steps at 300 kelvin.
TCL: Setting parameter langevinTemp to 300
TCL: Running for 1000000 steps
ETITLE: TS BOND ANGLE DIHED IMPRP ELECT VDW BOUNDARY MISC KINETIC TOTAL TEMP POTENTIAL TOTAL3 TEMPAVG PRESSURE GPRESSURE VOLUME PRESSAVG GPRESSAVG
ENERGY: 900000 0.0000 0.0000 0.0000 0.0000 -11449.2251 1638.4756 0.0000 0.0000 1584.4336 -8226.3160 269.0024 -9810.7495 -8223.4862 269.0024 259.5585 335.1179 30022.5587 259.5585 335.1179
ENERGY: 1100000 0.0000 0.0000 0.0000 0.0000 -10818.4498 1498.5942 0.0000 0.0000 1814.9594 -7504.8962 308.1407 -9319.8556 -7502.9989 300.1655 426.7916 540.6447 30821.0833 3.2334 3.1447
ENERGY: 1300000 0.0000 0.0000 0.0000 0.0000 -10945.8889 1586.8129 0.0000 0.0000 1762.1168 -7596.9593 299.1692 -9359.0760 -7594.6907 299.8808 824.4035 989.5999 30960.2275 1.8686 2.1306
ENERGY: 1500000 0.0000 0.0000 0.0000 0.0000 -10806.1752 1462.1621 0.0000 0.0000 1747.5518 -7596.4613 296.6964 -9344.0132 -7593.4940 300.5812 72.5017 143.6616 31018.4193 2.0992 2.3577
ENERGY: 1700000 0.0000 0.0000 0.0000 0.0000 -10749.2582 1443.6168 0.0000 0.0000 1773.6502 -7531.9912 301.1273 -9305.6414 -7529.3353 300.4542 204.3805 241.8765 30626.4052 2.5549 2.6790
ENERGY: 1900000 0.0000 0.0000 0.0000 0.0000 -10826.7653 1458.8766 0.0000 0.0000 1773.7697 -7594.1190 301.1476 -9367.8887 -7591.7481 300.5430 1.3309 67.2324 30782.3042 1.7414 1.8089
TCL: Exiting due to exit command.
