Info: SIMULATION PARAMETERS:
Info: TIMESTEP               2
Info: NUMBER OF STEPS        0
Info: STEPS PER CYCLE        10
Info: PERIODIC CELL BASIS 1  37.435 0 0
Info: PERIODIC CELL BASIS 2  0 35.779 0
Info: PERIODIC CELL BASIS 3  0 0 31.855
Info: PERIODIC CELL CENTER   0 0 0
Info: WRAPPING WATERS AROUND PERIODIC BOUNDARIES ON OUTPUT.
Info: WRAPPING ALL CLUSTERS AROUND PERIODIC BOUNDARIES ON OUTPUT.
Info: FIRST LDB TIMESTEP     50
Info: LAST LDB TIMESTEP     -1
Info: HOM BACKGROUND SCALING 1
Info: PME BACKGROUND SCALING 1
Info: MIN ATOMS PER PATCH    40
Info: EMPTY PATCH LOAD       40 ATOMS
Info: INITIAL TEMPERATURE    300
Info: CENTER OF MASS MOVING INITIALLY? NO
Info: DIELECTRIC             1
Info: EXCLUDE                SCALED ONE-FOUR
Info: 1-4 ELECTROSTATICS SCALED BY 0.833333
Info: MODIFIED 1-4 VDW PARAMETERS WILL BE USED
Info: DCD FILENAME           mobley_5026370_equil.dcd
Info: DCD FREQUENCY          100000
Info: DCD FIRST STEP         100000
Info: DCD FILE WILL CONTAIN UNIT CELL DATA
Info: XST FILENAME           mobley_5026370_equil.xst
Info: XST FREQUENCY          100000
Info: NO VELOCITY DCD OUTPUT
Info: NO FORCE DCD OUTPUT
Info: OUTPUT FILENAME        mobley_5026370_equil
Info: BINARY OUTPUT FILES WILL BE USED
Info: RESTART FILENAME       mobley_5026370_equil.restart
Info: RESTART FREQUENCY      100000
Info: BINARY RESTART FILES WILL BE USED
Info: CUTOFF                 9
Info: PAIRLIST DISTANCE      11
Info: PAIRLIST SHRINK RATE   0.01
Info: PAIRLIST GROW RATE     0.01
Info: PAIRLIST TRIGGER       0.3
Info: PAIRLISTS PER CYCLE    2
Info: PAIRLISTS ENABLED
Info: MARGIN                 8
Info: HYDROGEN GROUP CUTOFF  2.5
Info: PATCH DIMENSION        21.5
Info: ENERGY OUTPUT STEPS    100000
Info: ENERGY EVALUATION STEPS    100000
Info: OUTPUT ENERGY PRECISION 4
Info: CROSSTERM ENERGY INCLUDED IN DIHEDRAL
Info: TIMING OUTPUT STEPS    1000000
Info: PRESSURE OUTPUT STEPS  100000
Info: FIXED ATOMS ACTIVE
Info: LANGEVIN DYNAMICS ACTIVE
Info: LANGEVIN TEMPERATURE   30
Info: LANGEVIN USING BBK INTEGRATOR
Info: LANGEVIN DAMPING COEFFICIENT IS 1 INVERSE PS
Info: LANGEVIN DYNAMICS APPLIED TO HYDROGENS
Info: LANGEVIN PISTON PRESSURE CONTROL ACTIVE
Info:        TARGET PRESSURE IS 1.01325 BAR
Info:     OSCILLATION PERIOD IS 50 FS
Info:             DECAY TIME IS 25 FS
Info:     PISTON TEMPERATURE IS 300 K
Info:       PRESSURE CONTROL IS GROUP-BASED
Info:    INITIAL STRAIN RATE IS 0 0 0
Info:       CELL FLUCTUATION IS ISOTROPIC
Info: PARTICLE MESH EWALD (PME) ACTIVE
Info: PME TOLERANCE               1e-06
Info: PME EWALD COEFFICIENT       0.348832
Info: PME INTERPOLATION ORDER     4
Info: PME GRID DIMENSIONS         40 36 32
Info: PME MAXIMUM GRID SPACING    1
Info: FULL ELECTROSTATIC EVALUATION FREQUENCY      2
Info: USING VERLET I (r-RESPA) MTS SCHEME.
Info: C1 SPLITTING OF LONG RANGE ELECTROSTATICS
Info: PLACING ATOMS IN PATCHES BY HYDROGEN GROUPS
Info: RIGID BONDS TO HYDROGEN : ALL
Info:         ERROR TOLERANCE : 1e-08
Info:          MAX ITERATIONS : 100
Info: RIGID WATER USING SETTLE ALGORITHM
Info: RANDOM NUMBER SEED     1743720608
Info: USE HYDROGEN BONDS?    NO
Info: Using AMBER format force field!
Info: AMBER PARM FILE        mobley_5026370.prmtop
Info: COORDINATE PDB         mobley_5026370.pdb
Info: Exclusions will be read from PARM file!
Info: SCNB (VDW SCALING)     2
Info: USING ARITHMETIC MEAN TO COMBINE L-J SIGMA PARAMETERS
Info: BINARY COORDINATES     mobley_5026370_min.coor
Info: SUMMARY OF PARAMETERS:
Info: 8 BONDS
Info: 8 ANGLES
Info:   8 HARMONIC
Info:   0 COSINE-BASED
Info: 4 DIHEDRAL
Info: 0 IMPROPER
Info: 0 CROSSTERM
Info: 0 VDW
Info: 28 VDW_PAIRS
Info: 0 NBTHOLE_PAIRS
Info: STRUCTURE SUMMARY:
Info: 2934 ATOMS
Info: 2934 BONDS
Info: 17 ANGLES
Info: 27 DIHEDRALS
Info: 0 IMPROPERS
Info: 0 CROSSTERMS
Info: 2970 EXCLUSIONS
Info: 12 FIXED ATOMS
Info: 2926 RIGID BONDS
Info: 4 RIGID BONDS BETWEEN FIXED ATOMS
Info: 5844 DEGREES OF FREEDOM
Info: 982 HYDROGEN GROUPS
Info: 3 ATOMS IN LARGEST HYDROGEN GROUP
Info: 982 MIGRATION GROUPS
Info: 3 ATOMS IN LARGEST MIGRATION GROUP
Info: 8 HYDROGEN GROUPS WITH ALL ATOMS FIXED
Info: TOTAL MASS = 17651.7 amu
Info: TOTAL CHARGE = 9.99682e-05 e
Info: MASS DENSITY = 0.687008 g/cm^3
Info: ATOM DENSITY = 0.0687664 atoms/A^3
Info: ADDED 0 IMPLICIT EXCLUSIONS
Info: NONBONDED TABLE R-SQUARED SPACING: 0.0625
Info: NONBONDED TABLE SIZE: 705 POINTS
Info: REMOVING COM VELOCITY 0.126362 -0.0262291 0.0289332
TCL: Running for 100000 steps
ETITLE: TS BOND ANGLE DIHED IMPRP ELECT VDW BOUNDARY MISC KINETIC TOTAL TEMP POTENTIAL TOTAL3 TEMPAVG PRESSURE GPRESSURE VOLUME PRESSAVG GPRESSAVG
ENERGY: 0 0.0000 0.0000 0.0000 0.0000 -13621.4786 2334.2015 0.0000 0.0000 1719.8307 -9567.4465 296.1869 -11287.2771 -9567.1122 296.1869 111.1936 135.2156 42666.1686 111.1936 135.2156
ENERGY: 100000 0.0000 0.0000 0.0000 0.0000 -14127.9059 2461.4739 0.0000 0.0000 173.6781 -11492.7539 29.9106 -11666.4321 -11492.1890 30.8553 29.8554 89.8304 29671.6018 4.1502 4.1645
TCL: Running 100000 steps at 60 kelvin.
TCL: Setting parameter langevinTemp to 60
TCL: Running for 100000 steps
ETITLE: TS BOND ANGLE DIHED IMPRP ELECT VDW BOUNDARY MISC KINETIC TOTAL TEMP POTENTIAL TOTAL3 TEMPAVG PRESSURE GPRESSURE VOLUME PRESSAVG GPRESSAVG
ENERGY: 100000 0.0000 0.0000 0.0000 0.0000 -14127.9059 2461.4739 0.0000 0.0000 173.5949 -11492.8372 29.8963 -11666.4321 -11492.3715 29.8963 36.8694 89.9859 29671.6018 36.8694 89.9859
ENERGY: 200000 0.0000 0.0000 0.0000 0.0000 -14085.0381 2409.9337 0.0000 0.0000 354.1485 -11320.9559 60.9910 -11675.1044 -11319.6296 59.8902 -352.0927 -280.6855 29201.8681 3.4835 3.4797
TCL: Running 100000 steps at 90 kelvin.
TCL: Setting parameter langevinTemp to 90
TCL: Running for 100000 steps
ETITLE: TS BOND ANGLE DIHED IMPRP ELECT VDW BOUNDARY MISC KINETIC TOTAL TEMP POTENTIAL TOTAL3 TEMPAVG PRESSURE GPRESSURE VOLUME PRESSAVG GPRESSAVG
ENERGY: 200000 0.0000 0.0000 0.0000 0.0000 -14085.0381 2409.9337 0.0000 0.0000 353.9708 -11321.1336 60.9604 -11675.1044 -11320.3741 60.9604 -326.3169 -280.3506 29201.8681 -326.3169 -280.3506
ENERGY: 300000 0.0000 0.0000 0.0000 0.0000 -13923.9487 2375.8686 0.0000 0.0000 526.6340 -11021.4460 90.6962 -11548.0800 -11020.5918 89.9685 -81.4341 -9.4621 29003.8003 4.8277 4.6954
TCL: Running 100000 steps at 120 kelvin.
TCL: Setting parameter langevinTemp to 120
TCL: Running for 100000 steps
ETITLE: TS BOND ANGLE DIHED IMPRP ELECT VDW BOUNDARY MISC KINETIC TOTAL TEMP POTENTIAL TOTAL3 TEMPAVG PRESSURE GPRESSURE VOLUME PRESSAVG GPRESSAVG
ENERGY: 300000 0.0000 0.0000 0.0000 0.0000 -13923.9487 2375.8686 0.0000 0.0000 526.3702 -11021.7098 90.6508 -11548.0800 -11020.6603 90.6508 -62.0146 -10.3923 29003.8003 -62.0146 -10.3923
ENERGY: 400000 0.0000 0.0000 0.0000 0.0000 -13783.0144 2324.4577 0.0000 0.0000 699.2008 -10759.3559 120.4154 -11458.5567 -10757.2278 119.7184 5.6913 57.4021 28540.4183 4.7036 4.7855
TCL: Running 100000 steps at 150 kelvin.
TCL: Setting parameter langevinTemp to 150
TCL: Running for 100000 steps
ETITLE: TS BOND ANGLE DIHED IMPRP ELECT VDW BOUNDARY MISC KINETIC TOTAL TEMP POTENTIAL TOTAL3 TEMPAVG PRESSURE GPRESSURE VOLUME PRESSAVG GPRESSAVG
ENERGY: 400000 0.0000 0.0000 0.0000 0.0000 -13783.0144 2324.4577 0.0000 0.0000 698.8578 -10759.6989 120.3563 -11458.5567 -10758.4215 120.3563 14.2414 56.7948 28540.4183 14.2414 56.7948
ENERGY: 500000 0.0000 0.0000 0.0000 0.0000 -13612.6676 2293.8896 0.0000 0.0000 858.1419 -10460.6361 147.7880 -11318.7780 -10457.4915 150.1208 362.3281 443.1366 28503.3896 4.8597 4.7037
TCL: Running 100000 steps at 180 kelvin.
TCL: Setting parameter langevinTemp to 180
TCL: Running for 100000 steps
ETITLE: TS BOND ANGLE DIHED IMPRP ELECT VDW BOUNDARY MISC KINETIC TOTAL TEMP POTENTIAL TOTAL3 TEMPAVG PRESSURE GPRESSURE VOLUME PRESSAVG GPRESSAVG
ENERGY: 500000 0.0000 0.0000 0.0000 0.0000 -13612.6676 2293.8896 0.0000 0.0000 857.7079 -10461.0702 147.7133 -11318.7780 -10459.2186 147.7133 392.4198 443.8310 28503.3896 392.4198 443.8310
ENERGY: 600000 0.0000 0.0000 0.0000 0.0000 -13065.8319 2047.0914 0.0000 0.0000 1063.9446 -9954.7959 183.2311 -11018.7405 -9951.7863 179.8043 -589.6258 -504.7815 28798.2174 3.5380 3.4847
TCL: Running 100000 steps at 210 kelvin.
TCL: Setting parameter langevinTemp to 210
TCL: Running for 100000 steps
ETITLE: TS BOND ANGLE DIHED IMPRP ELECT VDW BOUNDARY MISC KINETIC TOTAL TEMP POTENTIAL TOTAL3 TEMPAVG PRESSURE GPRESSURE VOLUME PRESSAVG GPRESSAVG
ENERGY: 600000 0.0000 0.0000 0.0000 0.0000 -13065.8319 2047.0914 0.0000 0.0000 1063.4307 -9955.3098 183.1426 -11018.7405 -9952.7059 183.1426 -573.2332 -504.6471 28798.2174 -573.2332 -504.6471
ENERGY: 700000 0.0000 0.0000 0.0000 0.0000 -12375.7940 1821.5737 0.0000 0.0000 1213.7736 -9340.4467 209.0344 -10554.2203 -9337.5592 209.9118 -553.5951 -471.2508 28560.0003 3.8311 3.9422
TCL: Running 100000 steps at 240 kelvin.
TCL: Setting parameter langevinTemp to 240
TCL: Running for 100000 steps
ETITLE: TS BOND ANGLE DIHED IMPRP ELECT VDW BOUNDARY MISC KINETIC TOTAL TEMP POTENTIAL TOTAL3 TEMPAVG PRESSURE GPRESSURE VOLUME PRESSAVG GPRESSAVG
ENERGY: 700000 0.0000 0.0000 0.0000 0.0000 -12375.7940 1821.5737 0.0000 0.0000 1213.1840 -9341.0363 208.9329 -10554.2203 -9338.4778 208.9329 -553.2111 -470.0611 28560.0003 -553.2111 -470.0611
ENERGY: 800000 0.0000 0.0000 0.0000 0.0000 -11722.1650 1630.9675 0.0000 0.0000 1350.3312 -8740.8663 232.5522 -10091.1975 -8737.5640 239.4682 -626.1685 -586.3968 29069.0966 3.9661 3.8302
TCL: Running 100000 steps at 270 kelvin.
TCL: Setting parameter langevinTemp to 270
TCL: Running for 100000 steps
ETITLE: TS BOND ANGLE DIHED IMPRP ELECT VDW BOUNDARY MISC KINETIC TOTAL TEMP POTENTIAL TOTAL3 TEMPAVG PRESSURE GPRESSURE VOLUME PRESSAVG GPRESSAVG
ENERGY: 800000 0.0000 0.0000 0.0000 0.0000 -11722.1650 1630.9675 0.0000 0.0000 1349.6459 -8741.5516 232.4342 -10091.1975 -8738.9487 232.4342 -664.4376 -588.3136 29069.0966 -664.4376 -588.3136
ENERGY: 900000 0.0000 0.0000 0.0000 0.0000 -11220.0271 1562.0783 0.0000 0.0000 1603.5381 -8054.4106 276.1592 -9657.9488 -8051.5408 270.5485 216.7645 316.7196 29232.1415 2.3675 2.2210
TCL: Running 1000000 steps at 300 kelvin.
TCL: Setting parameter langevinTemp to 300
TCL: Running for 1000000 steps
ETITLE: TS BOND ANGLE DIHED IMPRP ELECT VDW BOUNDARY MISC KINETIC TOTAL TEMP POTENTIAL TOTAL3 TEMPAVG PRESSURE GPRESSURE VOLUME PRESSAVG GPRESSAVG
ENERGY: 900000 0.0000 0.0000 0.0000 0.0000 -11220.0271 1562.0783 0.0000 0.0000 1602.8032 -8055.1456 276.0326 -9657.9488 -8052.7756 276.0326 224.1491 317.8064 29232.1415 224.1491 317.8064
ENERGY: 1100000 0.0000 0.0000 0.0000 0.0000 -10692.8597 1447.5798 0.0000 0.0000 1768.1724 -7477.1075 304.5123 -9245.2799 -7475.1937 299.8183 93.4540 219.5023 30525.8566 3.1544 3.2233
ENERGY: 1300000 0.0000 0.0000 0.0000 0.0000 -10804.4537 1483.5301 0.0000 0.0000 1774.3423 -7546.5813 305.5748 -9320.9236 -7542.9926 299.5234 380.7132 486.7473 30116.2263 2.4698 2.4060
ENERGY: 1500000 0.0000 0.0000 0.0000 0.0000 -10622.7559 1351.9272 0.0000 0.0000 1713.9111 -7556.9176 295.1675 -9270.8287 -7554.3147 300.7117 -603.4812 -521.7429 30305.1643 3.0709 3.1243
ENERGY: 1700000 0.0000 0.0000 0.0000 0.0000 -10666.9003 1384.1305 0.0000 0.0000 1715.6138 -7567.1560 295.4607 -9282.7698 -7563.1268 300.5524 -210.7408 -190.1179 30115.8338 2.7778 2.7760
ENERGY: 1900000 0.0000 0.0000 0.0000 0.0000 -10688.5280 1410.7283 0.0000 0.0000 1768.9123 -7508.8874 304.6397 -9277.7997 -7505.5971 300.1506 -56.9656 10.7117 30047.7983 2.1488 2.2175
TCL: Exiting due to exit command.
