Info: SIMULATION PARAMETERS:
Info: TIMESTEP               2
Info: NUMBER OF STEPS        0
Info: STEPS PER CYCLE        10
Info: PERIODIC CELL BASIS 1  36.592 0 0
Info: PERIODIC CELL BASIS 2  0 36.611 0
Info: PERIODIC CELL BASIS 3  0 0 32.993
Info: PERIODIC CELL CENTER   0 0 0
Info: WRAPPING WATERS AROUND PERIODIC BOUNDARIES ON OUTPUT.
Info: WRAPPING ALL CLUSTERS AROUND PERIODIC BOUNDARIES ON OUTPUT.
Info: FIRST LDB TIMESTEP     50
Info: LAST LDB TIMESTEP     -1
Info: HOM BACKGROUND SCALING 1
Info: PME BACKGROUND SCALING 1
Info: MIN ATOMS PER PATCH    40
Info: EMPTY PATCH LOAD       40 ATOMS
Info: INITIAL TEMPERATURE    300
Info: CENTER OF MASS MOVING INITIALLY? NO
Info: DIELECTRIC             1
Info: EXCLUDE                SCALED ONE-FOUR
Info: 1-4 ELECTROSTATICS SCALED BY 0.833333
Info: MODIFIED 1-4 VDW PARAMETERS WILL BE USED
Info: DCD FILENAME           mobley_1571523_equil.dcd
Info: DCD FREQUENCY          100000
Info: DCD FIRST STEP         100000
Info: DCD FILE WILL CONTAIN UNIT CELL DATA
Info: XST FILENAME           mobley_1571523_equil.xst
Info: XST FREQUENCY          100000
Info: NO VELOCITY DCD OUTPUT
Info: NO FORCE DCD OUTPUT
Info: OUTPUT FILENAME        mobley_1571523_equil
Info: BINARY OUTPUT FILES WILL BE USED
Info: RESTART FILENAME       mobley_1571523_equil.restart
Info: RESTART FREQUENCY      100000
Info: BINARY RESTART FILES WILL BE USED
Info: CUTOFF                 9
Info: PAIRLIST DISTANCE      11
Info: PAIRLIST SHRINK RATE   0.01
Info: PAIRLIST GROW RATE     0.01
Info: PAIRLIST TRIGGER       0.3
Info: PAIRLISTS PER CYCLE    2
Info: PAIRLISTS ENABLED
Info: MARGIN                 8
Info: HYDROGEN GROUP CUTOFF  2.5
Info: PATCH DIMENSION        21.5
Info: ENERGY OUTPUT STEPS    100000
Info: ENERGY EVALUATION STEPS    100000
Info: OUTPUT ENERGY PRECISION 4
Info: CROSSTERM ENERGY INCLUDED IN DIHEDRAL
Info: TIMING OUTPUT STEPS    1000000
Info: PRESSURE OUTPUT STEPS  100000
Info: FIXED ATOMS ACTIVE
Info: LANGEVIN DYNAMICS ACTIVE
Info: LANGEVIN TEMPERATURE   30
Info: LANGEVIN USING BBK INTEGRATOR
Info: LANGEVIN DAMPING COEFFICIENT IS 1 INVERSE PS
Info: LANGEVIN DYNAMICS APPLIED TO HYDROGENS
Info: LANGEVIN PISTON PRESSURE CONTROL ACTIVE
Info:        TARGET PRESSURE IS 1.01325 BAR
Info:     OSCILLATION PERIOD IS 50 FS
Info:             DECAY TIME IS 25 FS
Info:     PISTON TEMPERATURE IS 300 K
Info:       PRESSURE CONTROL IS GROUP-BASED
Info:    INITIAL STRAIN RATE IS 0 0 0
Info:       CELL FLUCTUATION IS ISOTROPIC
Info: PARTICLE MESH EWALD (PME) ACTIVE
Info: PME TOLERANCE               1e-06
Info: PME EWALD COEFFICIENT       0.348832
Info: PME INTERPOLATION ORDER     4
Info: PME GRID DIMENSIONS         40 40 36
Info: PME MAXIMUM GRID SPACING    1
Info: FULL ELECTROSTATIC EVALUATION FREQUENCY      2
Info: USING VERLET I (r-RESPA) MTS SCHEME.
Info: C1 SPLITTING OF LONG RANGE ELECTROSTATICS
Info: PLACING ATOMS IN PATCHES BY HYDROGEN GROUPS
Info: RIGID BONDS TO HYDROGEN : ALL
Info:         ERROR TOLERANCE : 1e-08
Info:          MAX ITERATIONS : 100
Info: RIGID WATER USING SETTLE ALGORITHM
Info: RANDOM NUMBER SEED     1744677996
Info: USE HYDROGEN BONDS?    NO
Info: Using AMBER format force field!
Info: AMBER PARM FILE        mobley_1571523.prmtop
Info: COORDINATE PDB         mobley_1571523.pdb
Info: Exclusions will be read from PARM file!
Info: SCNB (VDW SCALING)     2
Info: USING ARITHMETIC MEAN TO COMBINE L-J SIGMA PARAMETERS
Info: BINARY COORDINATES     mobley_1571523_min.coor
Info: SUMMARY OF PARAMETERS:
Info: 8 BONDS
Info: 7 ANGLES
Info:   7 HARMONIC
Info:   0 COSINE-BASED
Info: 4 DIHEDRAL
Info: 0 IMPROPER
Info: 0 CROSSTERM
Info: 0 VDW
Info: 28 VDW_PAIRS
Info: 0 NBTHOLE_PAIRS
Info: STRUCTURE SUMMARY:
Info: 2923 ATOMS
Info: 2923 BONDS
Info: 31 ANGLES
Info: 44 DIHEDRALS
Info: 0 IMPROPERS
Info: 0 CROSSTERMS
Info: 2989 EXCLUSIONS
Info: 19 FIXED ATOMS
Info: 2914 RIGID BONDS
Info: 10 RIGID BONDS BETWEEN FIXED ATOMS
Info: 5808 DEGREES OF FREEDOM
Info: 977 HYDROGEN GROUPS
Info: 4 ATOMS IN LARGEST HYDROGEN GROUP
Info: 977 MIGRATION GROUPS
Info: 4 ATOMS IN LARGEST MIGRATION GROUP
Info: 9 HYDROGEN GROUPS WITH ALL ATOMS FIXED
Info: TOTAL MASS = 17561.6 amu
Info: TOTAL CHARGE = -0.000100031 e
Info: MASS DENSITY = 0.659789 g/cm^3
Info: ATOM DENSITY = 0.0661316 atoms/A^3
Info: ADDED 0 IMPLICIT EXCLUSIONS
Info: NONBONDED TABLE R-SQUARED SPACING: 0.0625
Info: NONBONDED TABLE SIZE: 705 POINTS
Info: REMOVING COM VELOCITY 0.100608 -0.0458877 0.0446251
TCL: Running for 100000 steps
ETITLE: TS BOND ANGLE DIHED IMPRP ELECT VDW BOUNDARY MISC KINETIC TOTAL TEMP POTENTIAL TOTAL3 TEMPAVG PRESSURE GPRESSURE VOLUME PRESSAVG GPRESSAVG
ENERGY: 0 0.0000 0.0000 0.0000 0.0000 -13499.8660 2353.1397 0.0000 0.0000 1759.7419 -9386.9844 304.9389 -11146.7263 -9386.6336 304.9389 299.9212 332.0525 44199.7228 299.9212 332.0525
ENERGY: 100000 0.0000 0.0000 0.0000 0.0000 -13972.9056 2353.1081 0.0000 0.0000 174.7853 -11445.0121 30.2879 -11619.7975 -11444.3745 30.9046 -615.1566 -580.8576 28991.6162 4.7146 4.7043
TCL: Running 100000 steps at 60 kelvin.
TCL: Setting parameter langevinTemp to 60
TCL: Running for 100000 steps
ETITLE: TS BOND ANGLE DIHED IMPRP ELECT VDW BOUNDARY MISC KINETIC TOTAL TEMP POTENTIAL TOTAL3 TEMPAVG PRESSURE GPRESSURE VOLUME PRESSAVG GPRESSAVG
ENERGY: 100000 0.0000 0.0000 0.0000 0.0000 -13972.9056 2353.1081 0.0000 0.0000 174.6984 -11445.0991 30.2728 -11619.7975 -11444.6924 30.2728 -639.9315 -580.8496 28991.6162 -639.9315 -580.8496
ENERGY: 200000 0.0000 0.0000 0.0000 0.0000 -14041.0226 2421.6765 0.0000 0.0000 343.9922 -11275.3539 59.6091 -11619.3461 -11274.2603 59.9927 182.0199 228.0552 28226.1549 5.5611 5.5387
TCL: Running 100000 steps at 90 kelvin.
TCL: Setting parameter langevinTemp to 90
TCL: Running for 100000 steps
ETITLE: TS BOND ANGLE DIHED IMPRP ELECT VDW BOUNDARY MISC KINETIC TOTAL TEMP POTENTIAL TOTAL3 TEMPAVG PRESSURE GPRESSURE VOLUME PRESSAVG GPRESSAVG
ENERGY: 200000 0.0000 0.0000 0.0000 0.0000 -14041.0226 2421.6765 0.0000 0.0000 343.8170 -11275.5291 59.5787 -11619.3461 -11274.6733 59.5787 178.3330 228.1130 28226.1549 178.3330 228.1130
ENERGY: 300000 0.0000 0.0000 0.0000 0.0000 -13813.2508 2294.8748 0.0000 0.0000 513.9548 -11004.4212 89.0612 -11518.3760 -11003.2922 89.7505 -590.2690 -500.7903 28394.8734 2.9398 2.7954
TCL: Running 100000 steps at 120 kelvin.
TCL: Setting parameter langevinTemp to 120
TCL: Running for 100000 steps
ETITLE: TS BOND ANGLE DIHED IMPRP ELECT VDW BOUNDARY MISC KINETIC TOTAL TEMP POTENTIAL TOTAL3 TEMPAVG PRESSURE GPRESSURE VOLUME PRESSAVG GPRESSAVG
ENERGY: 300000 0.0000 0.0000 0.0000 0.0000 -13813.2508 2294.8748 0.0000 0.0000 513.7076 -11004.6684 89.0184 -11518.3760 -11003.6311 89.0184 -547.9876 -501.0006 28394.8734 -547.9876 -501.0006
ENERGY: 400000 0.0000 0.0000 0.0000 0.0000 -13623.9328 2249.1860 0.0000 0.0000 687.7326 -10687.0141 119.1745 -11374.7467 -10685.6148 119.8828 -393.4131 -369.7944 28618.1969 5.7489 5.6881
TCL: Running 100000 steps at 150 kelvin.
TCL: Setting parameter langevinTemp to 150
TCL: Running for 100000 steps
ETITLE: TS BOND ANGLE DIHED IMPRP ELECT VDW BOUNDARY MISC KINETIC TOTAL TEMP POTENTIAL TOTAL3 TEMPAVG PRESSURE GPRESSURE VOLUME PRESSAVG GPRESSAVG
ENERGY: 400000 0.0000 0.0000 0.0000 0.0000 -13623.9328 2249.1860 0.0000 0.0000 687.3767 -10687.3701 119.1128 -11374.7467 -10685.8905 119.1128 -423.3244 -370.0041 28618.1969 -423.3244 -370.0041
ENERGY: 500000 0.0000 0.0000 0.0000 0.0000 -13363.2307 2184.0914 0.0000 0.0000 846.4239 -10332.7154 146.6735 -11179.1393 -10330.4265 149.8305 -401.4329 -345.0796 28840.9394 4.1229 4.1522
TCL: Running 100000 steps at 180 kelvin.
TCL: Setting parameter langevinTemp to 180
TCL: Running for 100000 steps
ETITLE: TS BOND ANGLE DIHED IMPRP ELECT VDW BOUNDARY MISC KINETIC TOTAL TEMP POTENTIAL TOTAL3 TEMPAVG PRESSURE GPRESSURE VOLUME PRESSAVG GPRESSAVG
ENERGY: 500000 0.0000 0.0000 0.0000 0.0000 -13363.2307 2184.0914 0.0000 0.0000 845.9875 -10333.1518 146.5979 -11179.1393 -10331.3206 146.5979 -399.2764 -345.0787 28840.9394 -399.2764 -345.0787
ENERGY: 600000 0.0000 0.0000 0.0000 0.0000 -12990.9152 2068.1219 0.0000 0.0000 1035.6243 -9887.1690 179.4593 -10922.7933 -9882.6534 179.8851 -200.8819 -144.8166 28522.6079 4.0949 4.0599
TCL: Running 100000 steps at 210 kelvin.
TCL: Setting parameter langevinTemp to 210
TCL: Running for 100000 steps
ETITLE: TS BOND ANGLE DIHED IMPRP ELECT VDW BOUNDARY MISC KINETIC TOTAL TEMP POTENTIAL TOTAL3 TEMPAVG PRESSURE GPRESSURE VOLUME PRESSAVG GPRESSAVG
ENERGY: 600000 0.0000 0.0000 0.0000 0.0000 -12990.9152 2068.1219 0.0000 0.0000 1035.1020 -9887.6913 179.3688 -10922.7933 -9885.4306 179.3688 -217.4231 -143.9534 28522.6079 -217.4231 -143.9534
ENERGY: 700000 0.0000 0.0000 0.0000 0.0000 -12373.8155 1931.8949 0.0000 0.0000 1231.6633 -9210.2573 213.4301 -10441.9206 -9207.5078 210.3174 347.8319 401.8520 28789.0830 2.9270 2.8995
TCL: Running 100000 steps at 240 kelvin.
TCL: Setting parameter langevinTemp to 240
TCL: Running for 100000 steps
ETITLE: TS BOND ANGLE DIHED IMPRP ELECT VDW BOUNDARY MISC KINETIC TOTAL TEMP POTENTIAL TOTAL3 TEMPAVG PRESSURE GPRESSURE VOLUME PRESSAVG GPRESSAVG
ENERGY: 700000 0.0000 0.0000 0.0000 0.0000 -12373.8155 1931.8949 0.0000 0.0000 1231.0754 -9210.8452 213.3283 -10441.9206 -9208.4527 213.3283 327.8702 402.0410 28789.0830 327.8702 402.0410
ENERGY: 800000 0.0000 0.0000 0.0000 0.0000 -11748.9908 1709.9121 0.0000 0.0000 1374.1806 -8664.8981 238.1264 -10039.0787 -8663.0888 239.8990 127.6012 235.5791 28640.3625 4.1757 4.3854
TCL: Running 100000 steps at 270 kelvin.
TCL: Setting parameter langevinTemp to 270
TCL: Running for 100000 steps
ETITLE: TS BOND ANGLE DIHED IMPRP ELECT VDW BOUNDARY MISC KINETIC TOTAL TEMP POTENTIAL TOTAL3 TEMPAVG PRESSURE GPRESSURE VOLUME PRESSAVG GPRESSAVG
ENERGY: 800000 0.0000 0.0000 0.0000 0.0000 -11748.9908 1709.9121 0.0000 0.0000 1373.4892 -8665.5896 238.0066 -10039.0787 -8663.2202 238.0066 155.4959 233.6528 28640.3625 155.4959 233.6528
ENERGY: 900000 0.0000 0.0000 0.0000 0.0000 -11272.1174 1573.3953 0.0000 0.0000 1566.5512 -8132.1708 271.4616 -9698.7220 -8127.1225 269.4738 -15.1908 -22.6708 29416.3767 3.2500 3.1100
TCL: Running 1000000 steps at 300 kelvin.
TCL: Setting parameter langevinTemp to 300
TCL: Running for 1000000 steps
ETITLE: TS BOND ANGLE DIHED IMPRP ELECT VDW BOUNDARY MISC KINETIC TOTAL TEMP POTENTIAL TOTAL3 TEMPAVG PRESSURE GPRESSURE VOLUME PRESSAVG GPRESSAVG
ENERGY: 900000 0.0000 0.0000 0.0000 0.0000 -11272.1174 1573.3953 0.0000 0.0000 1565.8015 -8132.9205 271.3317 -9698.7220 -8130.0554 271.3317 -80.9134 -22.5587 29416.3767 -80.9134 -22.5587
ENERGY: 1100000 0.0000 0.0000 0.0000 0.0000 -10623.9240 1388.2402 0.0000 0.0000 1735.3243 -7500.3595 300.7076 -9235.6839 -7493.7114 300.5465 -178.6791 -155.9965 30139.8445 2.7255 2.7319
ENERGY: 1300000 0.0000 0.0000 0.0000 0.0000 -10442.6389 1310.6074 0.0000 0.0000 1774.2960 -7357.7355 307.4609 -9132.0315 -7355.2027 300.7799 -784.1353 -708.3844 30595.7715 3.4053 3.2289
ENERGY: 1500000 0.0000 0.0000 0.0000 0.0000 -10589.3143 1483.7106 0.0000 0.0000 1749.3780 -7356.2257 303.1429 -9105.6037 -7353.3829 300.3940 424.0792 463.8744 30807.8122 3.2738 3.1806
ENERGY: 1700000 0.0000 0.0000 0.0000 0.0000 -10630.1152 1364.4620 0.0000 0.0000 1784.0703 -7481.5829 309.1546 -9265.6533 -7477.4479 300.2832 -718.9001 -619.9014 30371.7030 3.1284 3.0760
ENERGY: 1900000 0.0000 0.0000 0.0000 0.0000 -10468.9274 1286.1393 0.0000 0.0000 1703.0311 -7479.7571 295.1116 -9182.7881 -7477.5918 299.9241 -943.8026 -867.4933 29996.0411 3.2325 3.0191
TCL: Exiting due to exit command.
