Info: SIMULATION PARAMETERS:
Info: TIMESTEP               2
Info: NUMBER OF STEPS        0
Info: STEPS PER CYCLE        10
Info: PERIODIC CELL BASIS 1  37.435 0 0
Info: PERIODIC CELL BASIS 2  0 35.847 0
Info: PERIODIC CELL BASIS 3  0 0 31.855
Info: PERIODIC CELL CENTER   0 0 0
Info: WRAPPING WATERS AROUND PERIODIC BOUNDARIES ON OUTPUT.
Info: WRAPPING ALL CLUSTERS AROUND PERIODIC BOUNDARIES ON OUTPUT.
Info: FIRST LDB TIMESTEP     50
Info: LAST LDB TIMESTEP     -1
Info: HOM BACKGROUND SCALING 1
Info: PME BACKGROUND SCALING 1
Info: MIN ATOMS PER PATCH    40
Info: EMPTY PATCH LOAD       40 ATOMS
Info: INITIAL TEMPERATURE    300
Info: CENTER OF MASS MOVING INITIALLY? NO
Info: DIELECTRIC             1
Info: EXCLUDE                SCALED ONE-FOUR
Info: 1-4 ELECTROSTATICS SCALED BY 0.833333
Info: MODIFIED 1-4 VDW PARAMETERS WILL BE USED
Info: DCD FILENAME           mobley_3777264_equil.dcd
Info: DCD FREQUENCY          100000
Info: DCD FIRST STEP         100000
Info: DCD FILE WILL CONTAIN UNIT CELL DATA
Info: XST FILENAME           mobley_3777264_equil.xst
Info: XST FREQUENCY          100000
Info: NO VELOCITY DCD OUTPUT
Info: NO FORCE DCD OUTPUT
Info: OUTPUT FILENAME        mobley_3777264_equil
Info: BINARY OUTPUT FILES WILL BE USED
Info: RESTART FILENAME       mobley_3777264_equil.restart
Info: RESTART FREQUENCY      100000
Info: BINARY RESTART FILES WILL BE USED
Info: CUTOFF                 9
Info: PAIRLIST DISTANCE      11
Info: PAIRLIST SHRINK RATE   0.01
Info: PAIRLIST GROW RATE     0.01
Info: PAIRLIST TRIGGER       0.3
Info: PAIRLISTS PER CYCLE    2
Info: PAIRLISTS ENABLED
Info: MARGIN                 8
Info: HYDROGEN GROUP CUTOFF  2.5
Info: PATCH DIMENSION        21.5
Info: ENERGY OUTPUT STEPS    100000
Info: ENERGY EVALUATION STEPS    100000
Info: OUTPUT ENERGY PRECISION 4
Info: CROSSTERM ENERGY INCLUDED IN DIHEDRAL
Info: TIMING OUTPUT STEPS    1000000
Info: PRESSURE OUTPUT STEPS  100000
Info: FIXED ATOMS ACTIVE
Info: LANGEVIN DYNAMICS ACTIVE
Info: LANGEVIN TEMPERATURE   30
Info: LANGEVIN USING BBK INTEGRATOR
Info: LANGEVIN DAMPING COEFFICIENT IS 1 INVERSE PS
Info: LANGEVIN DYNAMICS APPLIED TO HYDROGENS
Info: LANGEVIN PISTON PRESSURE CONTROL ACTIVE
Info:        TARGET PRESSURE IS 1.01325 BAR
Info:     OSCILLATION PERIOD IS 50 FS
Info:             DECAY TIME IS 25 FS
Info:     PISTON TEMPERATURE IS 300 K
Info:       PRESSURE CONTROL IS GROUP-BASED
Info:    INITIAL STRAIN RATE IS 0 0 0
Info:       CELL FLUCTUATION IS ISOTROPIC
Info: PARTICLE MESH EWALD (PME) ACTIVE
Info: PME TOLERANCE               1e-06
Info: PME EWALD COEFFICIENT       0.348832
Info: PME INTERPOLATION ORDER     4
Info: PME GRID DIMENSIONS         40 36 32
Info: PME MAXIMUM GRID SPACING    1
Info: FULL ELECTROSTATIC EVALUATION FREQUENCY      2
Info: USING VERLET I (r-RESPA) MTS SCHEME.
Info: C1 SPLITTING OF LONG RANGE ELECTROSTATICS
Info: PLACING ATOMS IN PATCHES BY HYDROGEN GROUPS
Info: RIGID BONDS TO HYDROGEN : ALL
Info:         ERROR TOLERANCE : 1e-08
Info:          MAX ITERATIONS : 100
Info: RIGID WATER USING SETTLE ALGORITHM
Info: RANDOM NUMBER SEED     1744091979
Info: USE HYDROGEN BONDS?    NO
Info: Using AMBER format force field!
Info: AMBER PARM FILE        mobley_3777264.prmtop
Info: COORDINATE PDB         mobley_3777264.pdb
Info: Exclusions will be read from PARM file!
Info: SCNB (VDW SCALING)     2
Info: USING ARITHMETIC MEAN TO COMBINE L-J SIGMA PARAMETERS
Info: BINARY COORDINATES     mobley_3777264_min.coor
Info: SUMMARY OF PARAMETERS:
Info: 8 BONDS
Info: 8 ANGLES
Info:   8 HARMONIC
Info:   0 COSINE-BASED
Info: 4 DIHEDRAL
Info: 0 IMPROPER
Info: 0 CROSSTERM
Info: 0 VDW
Info: 28 VDW_PAIRS
Info: 0 NBTHOLE_PAIRS
Info: STRUCTURE SUMMARY:
Info: 2953 ATOMS
Info: 2953 BONDS
Info: 24 ANGLES
Info: 39 DIHEDRALS
Info: 0 IMPROPERS
Info: 0 CROSSTERMS
Info: 3006 EXCLUSIONS
Info: 16 FIXED ATOMS
Info: 2943 RIGID BONDS
Info: 6 RIGID BONDS BETWEEN FIXED ATOMS
Info: 5874 DEGREES OF FREEDOM
Info: 989 HYDROGEN GROUPS
Info: 3 ATOMS IN LARGEST HYDROGEN GROUP
Info: 989 MIGRATION GROUPS
Info: 3 ATOMS IN LARGEST MIGRATION GROUP
Info: 10 HYDROGEN GROUPS WITH ALL ATOMS FIXED
Info: TOTAL MASS = 17775.8 amu
Info: TOTAL CHARGE = 0.000200003 e
Info: MASS DENSITY = 0.690526 g/cm^3
Info: ATOM DENSITY = 0.0690805 atoms/A^3
Info: ADDED 0 IMPLICIT EXCLUSIONS
Info: NONBONDED TABLE R-SQUARED SPACING: 0.0625
Info: NONBONDED TABLE SIZE: 705 POINTS
Info: REMOVING COM VELOCITY -0.0457673 0.157709 -0.0620319
TCL: Running for 100000 steps
ETITLE: TS BOND ANGLE DIHED IMPRP ELECT VDW BOUNDARY MISC KINETIC TOTAL TEMP POTENTIAL TOTAL3 TEMPAVG PRESSURE GPRESSURE VOLUME PRESSAVG GPRESSAVG
ENERGY: 0 0.0000 0.0000 0.0000 0.0000 -13699.3937 2348.5197 0.0000 0.0000 1765.9301 -9584.9439 302.5729 -11350.8740 -9584.5746 302.5729 34.9284 63.4180 42747.2580 34.9284 63.4180
ENERGY: 100000 0.0000 0.0000 0.0000 0.0000 -14371.1752 2532.3914 0.0000 0.0000 175.5445 -11663.2392 30.0776 -11838.7838 -11662.7169 30.8588 525.9552 594.7682 28789.3659 3.0662 3.0626
TCL: Running 100000 steps at 60 kelvin.
TCL: Setting parameter langevinTemp to 60
TCL: Running for 100000 steps
ETITLE: TS BOND ANGLE DIHED IMPRP ELECT VDW BOUNDARY MISC KINETIC TOTAL TEMP POTENTIAL TOTAL3 TEMPAVG PRESSURE GPRESSURE VOLUME PRESSAVG GPRESSAVG
ENERGY: 100000 0.0000 0.0000 0.0000 0.0000 -14371.1752 2532.3914 0.0000 0.0000 175.4600 -11663.3238 30.0631 -11838.7838 -11662.9057 30.0631 541.6757 594.9584 28789.3659 541.6757 594.9584
ENERGY: 200000 0.0000 0.0000 0.0000 0.0000 -14196.3867 2435.8383 0.0000 0.0000 353.4318 -11407.1167 60.5567 -11760.5485 -11406.2035 59.8956 226.4831 232.9361 28550.8781 4.7232 4.7191
TCL: Running 100000 steps at 90 kelvin.
TCL: Setting parameter langevinTemp to 90
TCL: Running for 100000 steps
ETITLE: TS BOND ANGLE DIHED IMPRP ELECT VDW BOUNDARY MISC KINETIC TOTAL TEMP POTENTIAL TOTAL3 TEMPAVG PRESSURE GPRESSURE VOLUME PRESSAVG GPRESSAVG
ENERGY: 200000 0.0000 0.0000 0.0000 0.0000 -14196.3867 2435.8383 0.0000 0.0000 353.2586 -11407.2898 60.5270 -11760.5485 -11406.7247 60.5270 195.7674 232.7733 28550.8781 195.7674 232.7733
ENERGY: 300000 0.0000 0.0000 0.0000 0.0000 -13942.9866 2275.1823 0.0000 0.0000 538.7038 -11129.1004 92.3010 -11667.8042 -11127.3524 90.0375 -780.1864 -729.5868 28605.2881 3.3144 3.2390
TCL: Running 100000 steps at 120 kelvin.
TCL: Setting parameter langevinTemp to 120
TCL: Running for 100000 steps
ETITLE: TS BOND ANGLE DIHED IMPRP ELECT VDW BOUNDARY MISC KINETIC TOTAL TEMP POTENTIAL TOTAL3 TEMPAVG PRESSURE GPRESSURE VOLUME PRESSAVG GPRESSAVG
ENERGY: 300000 0.0000 0.0000 0.0000 0.0000 -13942.9866 2275.1823 0.0000 0.0000 538.4470 -11129.3573 92.2570 -11667.8042 -11128.3811 92.2570 -769.3870 -729.4579 28605.2881 -769.3870 -729.4579
ENERGY: 400000 0.0000 0.0000 0.0000 0.0000 -13875.9584 2310.3022 0.0000 0.0000 703.1839 -10862.4723 120.4829 -11565.6562 -10859.4816 120.2555 -139.7933 -47.3150 28723.0346 4.6100 4.6321
TCL: Running 100000 steps at 150 kelvin.
TCL: Setting parameter langevinTemp to 150
TCL: Running for 100000 steps
ETITLE: TS BOND ANGLE DIHED IMPRP ELECT VDW BOUNDARY MISC KINETIC TOTAL TEMP POTENTIAL TOTAL3 TEMPAVG PRESSURE GPRESSURE VOLUME PRESSAVG GPRESSAVG
ENERGY: 400000 0.0000 0.0000 0.0000 0.0000 -13875.9584 2310.3022 0.0000 0.0000 702.8254 -10862.8308 120.4215 -11565.6562 -10861.3911 120.4215 -90.6755 -45.9053 28723.0346 -90.6755 -45.9053
ENERGY: 500000 0.0000 0.0000 0.0000 0.0000 -13694.2533 2340.5407 0.0000 0.0000 883.4503 -10470.2623 151.3696 -11353.7126 -10469.2955 150.2397 881.2949 939.4944 28751.4291 3.0427 3.0465
TCL: Running 100000 steps at 180 kelvin.
TCL: Setting parameter langevinTemp to 180
TCL: Running for 100000 steps
ETITLE: TS BOND ANGLE DIHED IMPRP ELECT VDW BOUNDARY MISC KINETIC TOTAL TEMP POTENTIAL TOTAL3 TEMPAVG PRESSURE GPRESSURE VOLUME PRESSAVG GPRESSAVG
ENERGY: 500000 0.0000 0.0000 0.0000 0.0000 -13694.2533 2340.5407 0.0000 0.0000 883.0394 -10470.6732 151.2992 -11353.7126 -10469.1168 151.2992 882.4433 938.1792 28751.4291 882.4433 938.1792
ENERGY: 600000 0.0000 0.0000 0.0000 0.0000 -13299.1233 2252.7325 0.0000 0.0000 1055.4408 -9990.9500 180.8383 -11046.3908 -9990.4692 179.9106 1340.3077 1344.4094 28695.7412 4.5368 4.4935
TCL: Running 100000 steps at 210 kelvin.
TCL: Setting parameter langevinTemp to 210
TCL: Running for 100000 steps
ETITLE: TS BOND ANGLE DIHED IMPRP ELECT VDW BOUNDARY MISC KINETIC TOTAL TEMP POTENTIAL TOTAL3 TEMPAVG PRESSURE GPRESSURE VOLUME PRESSAVG GPRESSAVG
ENERGY: 600000 0.0000 0.0000 0.0000 0.0000 -13299.1233 2252.7325 0.0000 0.0000 1054.9212 -9991.4696 180.7492 -11046.3908 -9990.2285 180.7492 1280.5839 1344.2922 28695.7412 1280.5839 1344.2922
ENERGY: 700000 0.0000 0.0000 0.0000 0.0000 -12442.7033 1843.6962 0.0000 0.0000 1215.4620 -9383.5451 208.2561 -10599.0071 -9381.4439 209.7243 -583.1799 -436.3671 29057.0020 3.1397 3.0154
TCL: Running 100000 steps at 240 kelvin.
TCL: Setting parameter langevinTemp to 240
TCL: Running for 100000 steps
ETITLE: TS BOND ANGLE DIHED IMPRP ELECT VDW BOUNDARY MISC KINETIC TOTAL TEMP POTENTIAL TOTAL3 TEMPAVG PRESSURE GPRESSURE VOLUME PRESSAVG GPRESSAVG
ENERGY: 700000 0.0000 0.0000 0.0000 0.0000 -12442.7033 1843.6962 0.0000 0.0000 1214.8722 -9384.1349 208.1551 -10599.0071 -9382.1783 208.1551 -521.5733 -438.1043 29057.0020 -521.5733 -438.1043
ENERGY: 800000 0.0000 0.0000 0.0000 0.0000 -12058.2002 1860.8773 0.0000 0.0000 1387.2467 -8810.0762 237.6896 -10197.3229 -8808.4265 239.9322 1230.3917 1344.8236 28704.6830 4.5573 4.5532
TCL: Running 100000 steps at 270 kelvin.
TCL: Setting parameter langevinTemp to 270
TCL: Running for 100000 steps
ETITLE: TS BOND ANGLE DIHED IMPRP ELECT VDW BOUNDARY MISC KINETIC TOTAL TEMP POTENTIAL TOTAL3 TEMPAVG PRESSURE GPRESSURE VOLUME PRESSAVG GPRESSAVG
ENERGY: 800000 0.0000 0.0000 0.0000 0.0000 -12058.2002 1860.8773 0.0000 0.0000 1386.5455 -8810.7773 237.5694 -10197.3229 -8808.6804 237.5694 1256.8903 1343.9315 28704.6830 1256.8903 1343.9315
ENERGY: 900000 0.0000 0.0000 0.0000 0.0000 -11242.0251 1515.9005 0.0000 0.0000 1594.0984 -8132.0262 273.1314 -9726.1246 -8128.7858 270.2420 -496.9033 -376.1350 29957.7811 2.1584 2.0615
TCL: Running 1000000 steps at 300 kelvin.
TCL: Setting parameter langevinTemp to 300
TCL: Running for 1000000 steps
ETITLE: TS BOND ANGLE DIHED IMPRP ELECT VDW BOUNDARY MISC KINETIC TOTAL TEMP POTENTIAL TOTAL3 TEMPAVG PRESSURE GPRESSURE VOLUME PRESSAVG GPRESSAVG
ENERGY: 900000 0.0000 0.0000 0.0000 0.0000 -11242.0251 1515.9005 0.0000 0.0000 1593.3505 -8132.7741 273.0032 -9726.1246 -8130.4823 273.0032 -456.7284 -376.1940 29957.7811 -456.7284 -376.1940
ENERGY: 1100000 0.0000 0.0000 0.0000 0.0000 -10802.7697 1474.8500 0.0000 0.0000 1714.5644 -7613.3553 293.7719 -9327.9197 -7609.8291 299.9266 385.4730 417.7958 30414.2851 3.3112 3.4476
ENERGY: 1300000 0.0000 0.0000 0.0000 0.0000 -10780.8025 1424.1827 0.0000 0.0000 1783.8871 -7572.7327 305.6496 -9356.6198 -7568.9311 300.3487 -35.3097 31.0819 30460.6117 2.6091 2.7115
ENERGY: 1500000 0.0000 0.0000 0.0000 0.0000 -10847.0989 1494.6167 0.0000 0.0000 1689.0159 -7663.4663 289.3944 -9352.4822 -7661.2171 300.6238 342.9228 394.3836 30373.1887 1.8903 1.8620
ENERGY: 1700000 0.0000 0.0000 0.0000 0.0000 -10682.8716 1406.0214 0.0000 0.0000 1756.1884 -7520.6619 300.9037 -9276.8503 -7516.8386 300.4483 -158.7864 -67.4248 30794.2359 2.4347 2.5736
ENERGY: 1900000 0.0000 0.0000 0.0000 0.0000 -10799.9620 1485.1837 0.0000 0.0000 1693.9472 -7620.8310 290.2394 -9314.7783 -7616.0039 299.8104 415.2644 484.2874 30690.8795 2.5714 2.4395
TCL: Exiting due to exit command.
