Info: SIMULATION PARAMETERS:
Info: TIMESTEP               2
Info: NUMBER OF STEPS        0
Info: STEPS PER CYCLE        10
Info: PERIODIC CELL BASIS 1  37.38 0 0
Info: PERIODIC CELL BASIS 2  0 35.847 0
Info: PERIODIC CELL BASIS 3  0 0 31.855
Info: PERIODIC CELL CENTER   0 0 0
Info: WRAPPING WATERS AROUND PERIODIC BOUNDARIES ON OUTPUT.
Info: WRAPPING ALL CLUSTERS AROUND PERIODIC BOUNDARIES ON OUTPUT.
Info: FIRST LDB TIMESTEP     50
Info: LAST LDB TIMESTEP     -1
Info: HOM BACKGROUND SCALING 1
Info: PME BACKGROUND SCALING 1
Info: MIN ATOMS PER PATCH    40
Info: EMPTY PATCH LOAD       40 ATOMS
Info: INITIAL TEMPERATURE    300
Info: CENTER OF MASS MOVING INITIALLY? NO
Info: DIELECTRIC             1
Info: EXCLUDE                SCALED ONE-FOUR
Info: 1-4 ELECTROSTATICS SCALED BY 0.833333
Info: MODIFIED 1-4 VDW PARAMETERS WILL BE USED
Info: DCD FILENAME           mobley_4883284_equil.dcd
Info: DCD FREQUENCY          100000
Info: DCD FIRST STEP         100000
Info: DCD FILE WILL CONTAIN UNIT CELL DATA
Info: XST FILENAME           mobley_4883284_equil.xst
Info: XST FREQUENCY          100000
Info: NO VELOCITY DCD OUTPUT
Info: NO FORCE DCD OUTPUT
Info: OUTPUT FILENAME        mobley_4883284_equil
Info: BINARY OUTPUT FILES WILL BE USED
Info: RESTART FILENAME       mobley_4883284_equil.restart
Info: RESTART FREQUENCY      100000
Info: BINARY RESTART FILES WILL BE USED
Info: CUTOFF                 9
Info: PAIRLIST DISTANCE      11
Info: PAIRLIST SHRINK RATE   0.01
Info: PAIRLIST GROW RATE     0.01
Info: PAIRLIST TRIGGER       0.3
Info: PAIRLISTS PER CYCLE    2
Info: PAIRLISTS ENABLED
Info: MARGIN                 8
Info: HYDROGEN GROUP CUTOFF  2.5
Info: PATCH DIMENSION        21.5
Info: ENERGY OUTPUT STEPS    100000
Info: ENERGY EVALUATION STEPS    100000
Info: OUTPUT ENERGY PRECISION 4
Info: CROSSTERM ENERGY INCLUDED IN DIHEDRAL
Info: TIMING OUTPUT STEPS    1000000
Info: PRESSURE OUTPUT STEPS  100000
Info: FIXED ATOMS ACTIVE
Info: LANGEVIN DYNAMICS ACTIVE
Info: LANGEVIN TEMPERATURE   30
Info: LANGEVIN USING BBK INTEGRATOR
Info: LANGEVIN DAMPING COEFFICIENT IS 1 INVERSE PS
Info: LANGEVIN DYNAMICS APPLIED TO HYDROGENS
Info: LANGEVIN PISTON PRESSURE CONTROL ACTIVE
Info:        TARGET PRESSURE IS 1.01325 BAR
Info:     OSCILLATION PERIOD IS 50 FS
Info:             DECAY TIME IS 25 FS
Info:     PISTON TEMPERATURE IS 300 K
Info:       PRESSURE CONTROL IS GROUP-BASED
Info:    INITIAL STRAIN RATE IS 0 0 0
Info:       CELL FLUCTUATION IS ISOTROPIC
Info: PARTICLE MESH EWALD (PME) ACTIVE
Info: PME TOLERANCE               1e-06
Info: PME EWALD COEFFICIENT       0.348832
Info: PME INTERPOLATION ORDER     4
Info: PME GRID DIMENSIONS         40 36 32
Info: PME MAXIMUM GRID SPACING    1
Info: FULL ELECTROSTATIC EVALUATION FREQUENCY      2
Info: USING VERLET I (r-RESPA) MTS SCHEME.
Info: C1 SPLITTING OF LONG RANGE ELECTROSTATICS
Info: PLACING ATOMS IN PATCHES BY HYDROGEN GROUPS
Info: RIGID BONDS TO HYDROGEN : ALL
Info:         ERROR TOLERANCE : 1e-08
Info:          MAX ITERATIONS : 100
Info: RIGID WATER USING SETTLE ALGORITHM
Info: RANDOM NUMBER SEED     1743731043
Info: USE HYDROGEN BONDS?    NO
Info: Using AMBER format force field!
Info: AMBER PARM FILE        mobley_4883284.prmtop
Info: COORDINATE PDB         mobley_4883284.pdb
Info: Exclusions will be read from PARM file!
Info: SCNB (VDW SCALING)     2
Info: USING ARITHMETIC MEAN TO COMBINE L-J SIGMA PARAMETERS
Info: BINARY COORDINATES     mobley_4883284_min.coor
Info: SUMMARY OF PARAMETERS:
Info: 6 BONDS
Info: 5 ANGLES
Info:   5 HARMONIC
Info:   0 COSINE-BASED
Info: 3 DIHEDRAL
Info: 0 IMPROPER
Info: 0 CROSSTERM
Info: 0 VDW
Info: 21 VDW_PAIRS
Info: 0 NBTHOLE_PAIRS
Info: STRUCTURE SUMMARY:
Info: 2915 ATOMS
Info: 2915 BONDS
Info: 21 ANGLES
Info: 35 DIHEDRALS
Info: 0 IMPROPERS
Info: 0 CROSSTERMS
Info: 2961 EXCLUSIONS
Info: 14 FIXED ATOMS
Info: 2908 RIGID BONDS
Info: 7 RIGID BONDS BETWEEN FIXED ATOMS
Info: 5802 DEGREES OF FREEDOM
Info: 974 HYDROGEN GROUPS
Info: 3 ATOMS IN LARGEST HYDROGEN GROUP
Info: 974 MIGRATION GROUPS
Info: 3 ATOMS IN LARGEST MIGRATION GROUP
Info: 7 HYDROGEN GROUPS WITH ALL ATOMS FIXED
Info: TOTAL MASS = 17514.6 amu
Info: TOTAL CHARGE = 0.000299931 e
Info: MASS DENSITY = 0.681381 g/cm^3
Info: ATOM DENSITY = 0.0682918 atoms/A^3
Info: ADDED 0 IMPLICIT EXCLUSIONS
Info: NONBONDED TABLE R-SQUARED SPACING: 0.0625
Info: NONBONDED TABLE SIZE: 705 POINTS
Info: REMOVING COM VELOCITY -0.107165 0.0675046 0.128206
TCL: Running for 100000 steps
ETITLE: TS BOND ANGLE DIHED IMPRP ELECT VDW BOUNDARY MISC KINETIC TOTAL TEMP POTENTIAL TOTAL3 TEMPAVG PRESSURE GPRESSURE VOLUME PRESSAVG GPRESSAVG
ENERGY: 0 0.0000 0.0000 0.0000 0.0000 -13557.0016 2352.1340 0.0000 0.0000 1772.0021 -9432.8655 307.3809 -11204.8676 -9432.4980 307.3809 348.6555 385.2367 42684.4532 348.6555 385.2367
ENERGY: 100000 0.0000 0.0000 0.0000 0.0000 -14323.7986 2660.7945 0.0000 0.0000 172.9151 -11490.0890 29.9948 -11663.0041 -11489.4221 30.8326 2132.3195 2163.7226 27979.6094 4.3621 4.3648
TCL: Running 100000 steps at 60 kelvin.
TCL: Setting parameter langevinTemp to 60
TCL: Running for 100000 steps
ETITLE: TS BOND ANGLE DIHED IMPRP ELECT VDW BOUNDARY MISC KINETIC TOTAL TEMP POTENTIAL TOTAL3 TEMPAVG PRESSURE GPRESSURE VOLUME PRESSAVG GPRESSAVG
ENERGY: 100000 0.0000 0.0000 0.0000 0.0000 -14323.7986 2660.7945 0.0000 0.0000 172.8314 -11490.1727 29.9803 -11663.0041 -11489.9073 29.9803 2116.6477 2164.0530 27979.6094 2116.6477 2164.0530
ENERGY: 200000 0.0000 0.0000 0.0000 0.0000 -13980.8915 2376.4387 0.0000 0.0000 350.6517 -11253.8011 60.8259 -11604.4528 -11253.3101 59.9959 -67.9447 -33.1873 28276.5027 3.7392 3.7462
TCL: Running 100000 steps at 90 kelvin.
TCL: Setting parameter langevinTemp to 90
TCL: Running for 100000 steps
ETITLE: TS BOND ANGLE DIHED IMPRP ELECT VDW BOUNDARY MISC KINETIC TOTAL TEMP POTENTIAL TOTAL3 TEMPAVG PRESSURE GPRESSURE VOLUME PRESSAVG GPRESSAVG
ENERGY: 200000 0.0000 0.0000 0.0000 0.0000 -13980.8915 2376.4387 0.0000 0.0000 350.4734 -11253.9794 60.7950 -11604.4528 -11253.2704 60.7950 -83.7677 -34.1061 28276.5027 -83.7677 -34.1061
ENERGY: 300000 0.0000 0.0000 0.0000 0.0000 -13804.2481 2325.2214 0.0000 0.0000 521.5664 -10957.4603 90.4737 -11479.0267 -10956.4644 89.9961 -162.6360 -112.7956 28355.7713 3.7235 3.6274
TCL: Running 100000 steps at 120 kelvin.
TCL: Setting parameter langevinTemp to 120
TCL: Running for 100000 steps
ETITLE: TS BOND ANGLE DIHED IMPRP ELECT VDW BOUNDARY MISC KINETIC TOTAL TEMP POTENTIAL TOTAL3 TEMPAVG PRESSURE GPRESSURE VOLUME PRESSAVG GPRESSAVG
ENERGY: 300000 0.0000 0.0000 0.0000 0.0000 -13804.2481 2325.2214 0.0000 0.0000 521.3109 -10957.7159 90.4294 -11479.0267 -10956.5552 90.4294 -170.8642 -112.9713 28355.7713 -170.8642 -112.9713
ENERGY: 400000 0.0000 0.0000 0.0000 0.0000 -13758.5310 2375.6659 0.0000 0.0000 670.4658 -10712.3993 116.3026 -11382.8651 -10711.1778 119.7658 766.1667 764.8116 27982.0837 4.6708 4.7134
TCL: Running 100000 steps at 150 kelvin.
TCL: Setting parameter langevinTemp to 150
TCL: Running for 100000 steps
ETITLE: TS BOND ANGLE DIHED IMPRP ELECT VDW BOUNDARY MISC KINETIC TOTAL TEMP POTENTIAL TOTAL3 TEMPAVG PRESSURE GPRESSURE VOLUME PRESSAVG GPRESSAVG
ENERGY: 400000 0.0000 0.0000 0.0000 0.0000 -13758.5310 2375.6659 0.0000 0.0000 670.1294 -10712.7357 116.2442 -11382.8651 -10711.3597 116.2442 725.5772 764.6739 27982.0837 725.5772 764.6739
ENERGY: 500000 0.0000 0.0000 0.0000 0.0000 -13382.4564 2222.3186 0.0000 0.0000 867.1052 -10293.0326 150.4127 -11160.1378 -10291.3764 149.7621 73.5624 132.5680 28675.9128 4.5675 4.6468
TCL: Running 100000 steps at 180 kelvin.
TCL: Setting parameter langevinTemp to 180
TCL: Running for 100000 steps
ETITLE: TS BOND ANGLE DIHED IMPRP ELECT VDW BOUNDARY MISC KINETIC TOTAL TEMP POTENTIAL TOTAL3 TEMPAVG PRESSURE GPRESSURE VOLUME PRESSAVG GPRESSAVG
ENERGY: 500000 0.0000 0.0000 0.0000 0.0000 -13382.4564 2222.3186 0.0000 0.0000 866.6782 -10293.4596 150.3386 -11160.1378 -10292.0821 150.3386 75.7407 132.2576 28675.9128 75.7407 132.2576
ENERGY: 600000 0.0000 0.0000 0.0000 0.0000 -13071.4433 2131.1452 0.0000 0.0000 1045.4315 -9894.8665 181.3461 -10940.2981 -9893.0440 180.1009 104.5620 159.7395 28674.3039 3.3039 3.2884
TCL: Running 100000 steps at 210 kelvin.
TCL: Setting parameter langevinTemp to 210
TCL: Running for 100000 steps
ETITLE: TS BOND ANGLE DIHED IMPRP ELECT VDW BOUNDARY MISC KINETIC TOTAL TEMP POTENTIAL TOTAL3 TEMPAVG PRESSURE GPRESSURE VOLUME PRESSAVG GPRESSAVG
ENERGY: 600000 0.0000 0.0000 0.0000 0.0000 -13071.4433 2131.1452 0.0000 0.0000 1044.9185 -9895.3796 181.2571 -10940.2981 -9893.2518 181.2571 113.9339 159.0510 28674.3039 113.9339 159.0510
ENERGY: 700000 0.0000 0.0000 0.0000 0.0000 -12272.6318 1793.7794 0.0000 0.0000 1215.9751 -9262.8773 210.9295 -10478.8524 -9260.1562 210.1102 -563.9790 -465.2836 28406.3453 4.2297 4.0624
TCL: Running 100000 steps at 240 kelvin.
TCL: Setting parameter langevinTemp to 240
TCL: Running for 100000 steps
ETITLE: TS BOND ANGLE DIHED IMPRP ELECT VDW BOUNDARY MISC KINETIC TOTAL TEMP POTENTIAL TOTAL3 TEMPAVG PRESSURE GPRESSURE VOLUME PRESSAVG GPRESSAVG
ENERGY: 700000 0.0000 0.0000 0.0000 0.0000 -12272.6318 1793.7794 0.0000 0.0000 1215.3480 -9263.5043 210.8207 -10478.8524 -9261.3069 210.8207 -534.9155 -464.1009 28406.3453 -534.9155 -464.1009
ENERGY: 800000 0.0000 0.0000 0.0000 0.0000 -11615.6894 1584.8218 0.0000 0.0000 1418.3892 -8612.4784 246.0413 -10030.8676 -8608.9385 239.5917 -1031.2087 -890.9324 29118.5090 3.8689 3.6991
TCL: Running 100000 steps at 270 kelvin.
TCL: Setting parameter langevinTemp to 270
TCL: Running for 100000 steps
ETITLE: TS BOND ANGLE DIHED IMPRP ELECT VDW BOUNDARY MISC KINETIC TOTAL TEMP POTENTIAL TOTAL3 TEMPAVG PRESSURE GPRESSURE VOLUME PRESSAVG GPRESSAVG
ENERGY: 800000 0.0000 0.0000 0.0000 0.0000 -11615.6894 1584.8218 0.0000 0.0000 1417.6975 -8613.1701 245.9214 -10030.8676 -8610.6130 245.9214 -976.1150 -888.9780 29118.5090 -976.1150 -888.9780
ENERGY: 900000 0.0000 0.0000 0.0000 0.0000 -11082.8474 1536.0300 0.0000 0.0000 1490.9868 -8055.8306 258.6345 -9546.8174 -8053.2611 270.3513 504.5418 613.7450 28529.9816 4.4870 4.4709
TCL: Running 1000000 steps at 300 kelvin.
TCL: Setting parameter langevinTemp to 300
TCL: Running for 1000000 steps
ETITLE: TS BOND ANGLE DIHED IMPRP ELECT VDW BOUNDARY MISC KINETIC TOTAL TEMP POTENTIAL TOTAL3 TEMPAVG PRESSURE GPRESSURE VOLUME PRESSAVG GPRESSAVG
ENERGY: 900000 0.0000 0.0000 0.0000 0.0000 -11082.8474 1536.0300 0.0000 0.0000 1490.1656 -8056.6518 258.4921 -9546.8174 -8054.1621 258.4921 523.0728 611.8598 28529.9816 523.0728 611.8598
ENERGY: 1100000 0.0000 0.0000 0.0000 0.0000 -10574.9089 1300.4088 0.0000 0.0000 1728.6097 -7545.8903 299.8538 -9274.5000 -7542.8582 299.7562 -908.2104 -865.5771 29775.7275 3.6273 3.5210
ENERGY: 1300000 0.0000 0.0000 0.0000 0.0000 -10596.2640 1369.5167 0.0000 0.0000 1785.1710 -7441.5763 309.6653 -9226.7473 -7438.6052 299.8223 -661.7239 -560.9816 30374.4700 3.3626 3.3605
ENERGY: 1500000 0.0000 0.0000 0.0000 0.0000 -10544.5460 1368.0927 0.0000 0.0000 1739.3661 -7437.0871 301.7197 -9176.4533 -7430.4735 300.1567 -486.1322 -404.6583 30473.9348 2.4474 2.5470
ENERGY: 1700000 0.0000 0.0000 0.0000 0.0000 -10634.7816 1461.1557 0.0000 0.0000 1730.8796 -7442.7464 300.2476 -9173.6259 -7441.0839 300.3738 308.9744 402.3464 30243.9927 2.8049 2.7049
ENERGY: 1900000 0.0000 0.0000 0.0000 0.0000 -10692.0191 1445.7198 0.0000 0.0000 1710.7264 -7535.5729 296.7517 -9246.2993 -7532.3007 299.4603 322.2056 401.1188 29748.9024 3.4356 3.2878
TCL: Exiting due to exit command.
