Info: SIMULATION PARAMETERS:
Info: TIMESTEP               2
Info: NUMBER OF STEPS        0
Info: STEPS PER CYCLE        10
Info: PERIODIC CELL BASIS 1  36.281 0 0
Info: PERIODIC CELL BASIS 2  0 35.779 0
Info: PERIODIC CELL BASIS 3  0 0 34.471
Info: PERIODIC CELL CENTER   0 0 0
Info: WRAPPING WATERS AROUND PERIODIC BOUNDARIES ON OUTPUT.
Info: WRAPPING ALL CLUSTERS AROUND PERIODIC BOUNDARIES ON OUTPUT.
Info: FIRST LDB TIMESTEP     50
Info: LAST LDB TIMESTEP     -1
Info: HOM BACKGROUND SCALING 1
Info: PME BACKGROUND SCALING 1
Info: MIN ATOMS PER PATCH    40
Info: EMPTY PATCH LOAD       40 ATOMS
Info: INITIAL TEMPERATURE    300
Info: CENTER OF MASS MOVING INITIALLY? NO
Info: DIELECTRIC             1
Info: EXCLUDE                SCALED ONE-FOUR
Info: 1-4 ELECTROSTATICS SCALED BY 0.833333
Info: MODIFIED 1-4 VDW PARAMETERS WILL BE USED
Info: DCD FILENAME           mobley_4506634_equil.dcd
Info: DCD FREQUENCY          100000
Info: DCD FIRST STEP         100000
Info: DCD FILE WILL CONTAIN UNIT CELL DATA
Info: XST FILENAME           mobley_4506634_equil.xst
Info: XST FREQUENCY          100000
Info: NO VELOCITY DCD OUTPUT
Info: NO FORCE DCD OUTPUT
Info: OUTPUT FILENAME        mobley_4506634_equil
Info: BINARY OUTPUT FILES WILL BE USED
Info: RESTART FILENAME       mobley_4506634_equil.restart
Info: RESTART FREQUENCY      100000
Info: BINARY RESTART FILES WILL BE USED
Info: CUTOFF                 9
Info: PAIRLIST DISTANCE      11
Info: PAIRLIST SHRINK RATE   0.01
Info: PAIRLIST GROW RATE     0.01
Info: PAIRLIST TRIGGER       0.3
Info: PAIRLISTS PER CYCLE    2
Info: PAIRLISTS ENABLED
Info: MARGIN                 8
Info: HYDROGEN GROUP CUTOFF  2.5
Info: PATCH DIMENSION        21.5
Info: ENERGY OUTPUT STEPS    100000
Info: ENERGY EVALUATION STEPS    100000
Info: OUTPUT ENERGY PRECISION 4
Info: CROSSTERM ENERGY INCLUDED IN DIHEDRAL
Info: TIMING OUTPUT STEPS    1000000
Info: PRESSURE OUTPUT STEPS  100000
Info: FIXED ATOMS ACTIVE
Info: LANGEVIN DYNAMICS ACTIVE
Info: LANGEVIN TEMPERATURE   30
Info: LANGEVIN USING BBK INTEGRATOR
Info: LANGEVIN DAMPING COEFFICIENT IS 1 INVERSE PS
Info: LANGEVIN DYNAMICS APPLIED TO HYDROGENS
Info: LANGEVIN PISTON PRESSURE CONTROL ACTIVE
Info:        TARGET PRESSURE IS 1.01325 BAR
Info:     OSCILLATION PERIOD IS 50 FS
Info:             DECAY TIME IS 25 FS
Info:     PISTON TEMPERATURE IS 300 K
Info:       PRESSURE CONTROL IS GROUP-BASED
Info:    INITIAL STRAIN RATE IS 0 0 0
Info:       CELL FLUCTUATION IS ISOTROPIC
Info: PARTICLE MESH EWALD (PME) ACTIVE
Info: PME TOLERANCE               1e-06
Info: PME EWALD COEFFICIENT       0.348832
Info: PME INTERPOLATION ORDER     4
Info: PME GRID DIMENSIONS         40 36 36
Info: PME MAXIMUM GRID SPACING    1
Info: FULL ELECTROSTATIC EVALUATION FREQUENCY      2
Info: USING VERLET I (r-RESPA) MTS SCHEME.
Info: C1 SPLITTING OF LONG RANGE ELECTROSTATICS
Info: PLACING ATOMS IN PATCHES BY HYDROGEN GROUPS
Info: RIGID BONDS TO HYDROGEN : ALL
Info:         ERROR TOLERANCE : 1e-08
Info:          MAX ITERATIONS : 100
Info: RIGID WATER USING SETTLE ALGORITHM
Info: RANDOM NUMBER SEED     1743674382
Info: USE HYDROGEN BONDS?    NO
Info: Using AMBER format force field!
Info: AMBER PARM FILE        mobley_4506634.prmtop
Info: COORDINATE PDB         mobley_4506634.pdb
Info: Exclusions will be read from PARM file!
Info: SCNB (VDW SCALING)     2
Info: USING ARITHMETIC MEAN TO COMBINE L-J SIGMA PARAMETERS
Info: BINARY COORDINATES     mobley_4506634_min.coor
Info: SUMMARY OF PARAMETERS:
Info: 7 BONDS
Info: 8 ANGLES
Info:   8 HARMONIC
Info:   0 COSINE-BASED
Info: 1 DIHEDRAL
Info: 0 IMPROPER
Info: 0 CROSSTERM
Info: 0 VDW
Info: 28 VDW_PAIRS
Info: 0 NBTHOLE_PAIRS
Info: STRUCTURE SUMMARY:
Info: 2933 ATOMS
Info: 2932 BONDS
Info: 12 ANGLES
Info: 9 DIHEDRALS
Info: 0 IMPROPERS
Info: 0 CROSSTERMS
Info: 2953 EXCLUSIONS
Info: 8 FIXED ATOMS
Info: 2926 RIGID BONDS
Info: 1 RIGID BONDS BETWEEN FIXED ATOMS
Info: 5850 DEGREES OF FREEDOM
Info: 982 HYDROGEN GROUPS
Info: 3 ATOMS IN LARGEST HYDROGEN GROUP
Info: 982 MIGRATION GROUPS
Info: 3 ATOMS IN LARGEST MIGRATION GROUP
Info: 7 HYDROGEN GROUPS WITH ALL ATOMS FIXED
Info: TOTAL MASS = 17763 amu
Info: TOTAL CHARGE = 9.99905e-05 e
Info: MASS DENSITY = 0.659195 g/cm^3
Info: ATOM DENSITY = 0.0655467 atoms/A^3
Info: ADDED 0 IMPLICIT EXCLUSIONS
Info: NONBONDED TABLE R-SQUARED SPACING: 0.0625
Info: NONBONDED TABLE SIZE: 705 POINTS
Info: REMOVING COM VELOCITY -0.0833072 -0.0194423 0.185165
TCL: Running for 100000 steps
ETITLE: TS BOND ANGLE DIHED IMPRP ELECT VDW BOUNDARY MISC KINETIC TOTAL TEMP POTENTIAL TOTAL3 TEMPAVG PRESSURE GPRESSURE VOLUME PRESSAVG GPRESSAVG
ENERGY: 0 0.0000 0.0000 0.0000 0.0000 -13640.6697 2381.2336 0.0000 0.0000 1761.9914 -9497.4447 303.1365 -11259.4361 -9497.1040 303.1365 464.9559 500.4277 44746.7327 464.9559 500.4277
ENERGY: 100000 0.0000 0.0000 0.0000 0.0000 -14138.0732 2426.6810 0.0000 0.0000 173.7970 -11537.5952 29.9004 -11711.3922 -11537.1334 30.8878 -178.7242 -113.0250 29121.3838 3.5666 3.5492
TCL: Running 100000 steps at 60 kelvin.
TCL: Setting parameter langevinTemp to 60
TCL: Running for 100000 steps
ETITLE: TS BOND ANGLE DIHED IMPRP ELECT VDW BOUNDARY MISC KINETIC TOTAL TEMP POTENTIAL TOTAL3 TEMPAVG PRESSURE GPRESSURE VOLUME PRESSAVG GPRESSAVG
ENERGY: 100000 0.0000 0.0000 0.0000 0.0000 -14138.0732 2426.6810 0.0000 0.0000 173.7094 -11537.6828 29.8853 -11711.3922 -11537.2555 29.8853 -174.3778 -113.0385 29121.3838 -174.3778 -113.0385
ENERGY: 200000 0.0000 0.0000 0.0000 0.0000 -14120.5355 2456.7693 0.0000 0.0000 343.4656 -11320.3005 59.0905 -11663.7661 -11320.0713 59.9704 344.0315 414.5546 28988.2223 3.4339 3.4677
TCL: Running 100000 steps at 90 kelvin.
TCL: Setting parameter langevinTemp to 90
TCL: Running for 100000 steps
ETITLE: TS BOND ANGLE DIHED IMPRP ELECT VDW BOUNDARY MISC KINETIC TOTAL TEMP POTENTIAL TOTAL3 TEMPAVG PRESSURE GPRESSURE VOLUME PRESSAVG GPRESSAVG
ENERGY: 200000 0.0000 0.0000 0.0000 0.0000 -14120.5355 2456.7693 0.0000 0.0000 343.2915 -11320.4746 59.0606 -11663.7661 -11319.6216 59.0606 346.4041 413.9472 28988.2223 346.4041 413.9472
ENERGY: 300000 0.0000 0.0000 0.0000 0.0000 -13836.3545 2306.8630 0.0000 0.0000 528.4204 -11001.0711 90.9105 -11529.4915 -10999.8419 89.8925 -473.1460 -413.1060 29203.8639 5.0264 4.9251
TCL: Running 100000 steps at 120 kelvin.
TCL: Setting parameter langevinTemp to 120
TCL: Running for 100000 steps
ETITLE: TS BOND ANGLE DIHED IMPRP ELECT VDW BOUNDARY MISC KINETIC TOTAL TEMP POTENTIAL TOTAL3 TEMPAVG PRESSURE GPRESSURE VOLUME PRESSAVG GPRESSAVG
ENERGY: 300000 0.0000 0.0000 0.0000 0.0000 -13836.3545 2306.8630 0.0000 0.0000 528.1639 -11001.3276 90.8664 -11529.4915 -11000.4616 90.8664 -477.1787 -413.7521 29203.8639 -477.1787 -413.7521
ENERGY: 400000 0.0000 0.0000 0.0000 0.0000 -13556.0653 2128.1538 0.0000 0.0000 685.2584 -10742.6531 117.8932 -11427.9115 -10741.2119 119.9619 -1469.4287 -1442.4886 29079.7179 3.5440 3.6821
TCL: Running 100000 steps at 150 kelvin.
TCL: Setting parameter langevinTemp to 150
TCL: Running for 100000 steps
ETITLE: TS BOND ANGLE DIHED IMPRP ELECT VDW BOUNDARY MISC KINETIC TOTAL TEMP POTENTIAL TOTAL3 TEMPAVG PRESSURE GPRESSURE VOLUME PRESSAVG GPRESSAVG
ENERGY: 400000 0.0000 0.0000 0.0000 0.0000 -13556.0653 2128.1538 0.0000 0.0000 684.9035 -10743.0080 117.8322 -11427.9115 -10741.3031 117.8322 -1502.1016 -1443.1087 29079.7179 -1502.1016 -1443.1087
ENERGY: 500000 0.0000 0.0000 0.0000 0.0000 -13469.3118 2241.7206 0.0000 0.0000 878.2624 -10349.3289 151.0980 -11227.5912 -10348.1557 150.1931 175.3423 188.2543 28785.9660 3.9836 3.9569
TCL: Running 100000 steps at 180 kelvin.
TCL: Setting parameter langevinTemp to 180
TCL: Running for 100000 steps
ETITLE: TS BOND ANGLE DIHED IMPRP ELECT VDW BOUNDARY MISC KINETIC TOTAL TEMP POTENTIAL TOTAL3 TEMPAVG PRESSURE GPRESSURE VOLUME PRESSAVG GPRESSAVG
ENERGY: 500000 0.0000 0.0000 0.0000 0.0000 -13469.3118 2241.7206 0.0000 0.0000 877.8421 -10349.7491 151.0257 -11227.5912 -10348.5357 151.0257 136.4776 188.1795 28785.9660 136.4776 188.1795
ENERGY: 600000 0.0000 0.0000 0.0000 0.0000 -13148.8842 2139.8403 0.0000 0.0000 1084.9060 -9924.1379 186.6494 -11009.0439 -9922.2154 180.0437 206.3834 263.7098 28673.6398 5.2444 5.2021
TCL: Running 100000 steps at 210 kelvin.
TCL: Setting parameter langevinTemp to 210
TCL: Running for 100000 steps
ETITLE: TS BOND ANGLE DIHED IMPRP ELECT VDW BOUNDARY MISC KINETIC TOTAL TEMP POTENTIAL TOTAL3 TEMPAVG PRESSURE GPRESSURE VOLUME PRESSAVG GPRESSAVG
ENERGY: 600000 0.0000 0.0000 0.0000 0.0000 -13148.8842 2139.8403 0.0000 0.0000 1084.3878 -9924.6561 186.5603 -11009.0439 -9922.4595 186.5603 200.1814 261.8539 28673.6398 200.1814 261.8539
ENERGY: 700000 0.0000 0.0000 0.0000 0.0000 -12350.3007 1835.1130 0.0000 0.0000 1200.7253 -9314.4623 206.5752 -10515.1877 -9311.4293 210.1439 -580.8585 -489.0490 29047.8878 2.8459 2.7645
TCL: Running 100000 steps at 240 kelvin.
TCL: Setting parameter langevinTemp to 240
TCL: Running for 100000 steps
ETITLE: TS BOND ANGLE DIHED IMPRP ELECT VDW BOUNDARY MISC KINETIC TOTAL TEMP POTENTIAL TOTAL3 TEMPAVG PRESSURE GPRESSURE VOLUME PRESSAVG GPRESSAVG
ENERGY: 700000 0.0000 0.0000 0.0000 0.0000 -12350.3007 1835.1130 0.0000 0.0000 1200.1287 -9315.0590 206.4726 -10515.1877 -9313.2105 206.4726 -568.7366 -488.0367 29047.8878 -568.7366 -488.0367
ENERGY: 800000 0.0000 0.0000 0.0000 0.0000 -11741.0932 1642.4346 0.0000 0.0000 1398.8925 -8699.7661 240.6683 -10098.6586 -8696.2538 240.4625 -665.3632 -560.0074 29006.5128 2.9415 2.9189
TCL: Running 100000 steps at 270 kelvin.
TCL: Setting parameter langevinTemp to 270
TCL: Running for 100000 steps
ETITLE: TS BOND ANGLE DIHED IMPRP ELECT VDW BOUNDARY MISC KINETIC TOTAL TEMP POTENTIAL TOTAL3 TEMPAVG PRESSURE GPRESSURE VOLUME PRESSAVG GPRESSAVG
ENERGY: 800000 0.0000 0.0000 0.0000 0.0000 -11741.0932 1642.4346 0.0000 0.0000 1398.1683 -8700.4903 240.5437 -10098.6586 -8697.6738 240.5437 -648.2257 -559.2916 29006.5128 -648.2257 -559.2916
ENERGY: 900000 0.0000 0.0000 0.0000 0.0000 -11348.3627 1667.5319 0.0000 0.0000 1592.4085 -8088.4223 273.9612 -9680.8308 -8088.2745 270.0708 835.0424 927.4308 29263.8780 3.4980 3.4814
TCL: Running 1000000 steps at 300 kelvin.
TCL: Setting parameter langevinTemp to 300
TCL: Running for 1000000 steps
ETITLE: TS BOND ANGLE DIHED IMPRP ELECT VDW BOUNDARY MISC KINETIC TOTAL TEMP POTENTIAL TOTAL3 TEMPAVG PRESSURE GPRESSURE VOLUME PRESSAVG GPRESSAVG
ENERGY: 900000 0.0000 0.0000 0.0000 0.0000 -11348.3627 1667.5319 0.0000 0.0000 1591.6294 -8089.2014 273.8271 -9680.8308 -8086.8633 273.8271 828.5520 925.6587 29263.8780 828.5520 925.6587
ENERGY: 1100000 0.0000 0.0000 0.0000 0.0000 -10613.9187 1346.7059 0.0000 0.0000 1730.1574 -7537.0554 297.6598 -9267.2128 -7532.3267 300.0085 -669.2500 -580.2312 30277.0814 3.4274 3.3327
ENERGY: 1300000 0.0000 0.0000 0.0000 0.0000 -10679.0384 1492.4250 0.0000 0.0000 1730.5749 -7456.0385 297.7316 -9186.6134 -7453.8053 300.3631 508.4305 619.8623 30420.7519 1.5037 1.7488
ENERGY: 1500000 0.0000 0.0000 0.0000 0.0000 -10722.9964 1450.0668 0.0000 0.0000 1729.0479 -7543.8816 297.4689 -9272.9295 -7539.5060 300.1203 128.0136 187.1428 30176.4042 3.6160 3.5902
ENERGY: 1700000 0.0000 0.0000 0.0000 0.0000 -10773.3923 1437.3700 0.0000 0.0000 1745.1743 -7590.8479 300.2433 -9336.0223 -7586.5269 299.4672 107.9689 192.5471 29730.2644 3.1947 3.1204
ENERGY: 1900000 0.0000 0.0000 0.0000 0.0000 -10661.0751 1404.2982 0.0000 0.0000 1729.1856 -7527.5913 297.4926 -9256.7769 -7523.7566 300.6808 -133.7868 -28.2584 30005.9756 3.1198 3.3613
TCL: Exiting due to exit command.
