Info: SIMULATION PARAMETERS:
Info: TIMESTEP               2
Info: NUMBER OF STEPS        0
Info: STEPS PER CYCLE        10
Info: PERIODIC CELL BASIS 1  38.861 0 0
Info: PERIODIC CELL BASIS 2  0 34.696 0
Info: PERIODIC CELL BASIS 3  0 0 31.561
Info: PERIODIC CELL CENTER   0 0 0
Info: WRAPPING WATERS AROUND PERIODIC BOUNDARIES ON OUTPUT.
Info: WRAPPING ALL CLUSTERS AROUND PERIODIC BOUNDARIES ON OUTPUT.
Info: FIRST LDB TIMESTEP     50
Info: LAST LDB TIMESTEP     -1
Info: HOM BACKGROUND SCALING 1
Info: PME BACKGROUND SCALING 1
Info: MIN ATOMS PER PATCH    40
Info: EMPTY PATCH LOAD       40 ATOMS
Info: INITIAL TEMPERATURE    300
Info: CENTER OF MASS MOVING INITIALLY? NO
Info: DIELECTRIC             1
Info: EXCLUDE                SCALED ONE-FOUR
Info: 1-4 ELECTROSTATICS SCALED BY 0.833333
Info: MODIFIED 1-4 VDW PARAMETERS WILL BE USED
Info: DCD FILENAME           mobley_2295058_equil.dcd
Info: DCD FREQUENCY          100000
Info: DCD FIRST STEP         100000
Info: DCD FILE WILL CONTAIN UNIT CELL DATA
Info: XST FILENAME           mobley_2295058_equil.xst
Info: XST FREQUENCY          100000
Info: NO VELOCITY DCD OUTPUT
Info: NO FORCE DCD OUTPUT
Info: OUTPUT FILENAME        mobley_2295058_equil
Info: BINARY OUTPUT FILES WILL BE USED
Info: RESTART FILENAME       mobley_2295058_equil.restart
Info: RESTART FREQUENCY      100000
Info: BINARY RESTART FILES WILL BE USED
Info: CUTOFF                 9
Info: PAIRLIST DISTANCE      11
Info: PAIRLIST SHRINK RATE   0.01
Info: PAIRLIST GROW RATE     0.01
Info: PAIRLIST TRIGGER       0.3
Info: PAIRLISTS PER CYCLE    2
Info: PAIRLISTS ENABLED
Info: MARGIN                 8
Info: HYDROGEN GROUP CUTOFF  2.5
Info: PATCH DIMENSION        21.5
Info: ENERGY OUTPUT STEPS    100000
Info: ENERGY EVALUATION STEPS    100000
Info: OUTPUT ENERGY PRECISION 4
Info: CROSSTERM ENERGY INCLUDED IN DIHEDRAL
Info: TIMING OUTPUT STEPS    1000000
Info: PRESSURE OUTPUT STEPS  100000
Info: FIXED ATOMS ACTIVE
Info: LANGEVIN DYNAMICS ACTIVE
Info: LANGEVIN TEMPERATURE   30
Info: LANGEVIN USING BBK INTEGRATOR
Info: LANGEVIN DAMPING COEFFICIENT IS 1 INVERSE PS
Info: LANGEVIN DYNAMICS APPLIED TO HYDROGENS
Info: LANGEVIN PISTON PRESSURE CONTROL ACTIVE
Info:        TARGET PRESSURE IS 1.01325 BAR
Info:     OSCILLATION PERIOD IS 50 FS
Info:             DECAY TIME IS 25 FS
Info:     PISTON TEMPERATURE IS 300 K
Info:       PRESSURE CONTROL IS GROUP-BASED
Info:    INITIAL STRAIN RATE IS 0 0 0
Info:       CELL FLUCTUATION IS ISOTROPIC
Info: PARTICLE MESH EWALD (PME) ACTIVE
Info: PME TOLERANCE               1e-06
Info: PME EWALD COEFFICIENT       0.348832
Info: PME INTERPOLATION ORDER     4
Info: PME GRID DIMENSIONS         40 36 32
Info: PME MAXIMUM GRID SPACING    1
Info: FULL ELECTROSTATIC EVALUATION FREQUENCY      2
Info: USING VERLET I (r-RESPA) MTS SCHEME.
Info: C1 SPLITTING OF LONG RANGE ELECTROSTATICS
Info: PLACING ATOMS IN PATCHES BY HYDROGEN GROUPS
Info: RIGID BONDS TO HYDROGEN : ALL
Info:         ERROR TOLERANCE : 1e-08
Info:          MAX ITERATIONS : 100
Info: RIGID WATER USING SETTLE ALGORITHM
Info: RANDOM NUMBER SEED     1744093962
Info: USE HYDROGEN BONDS?    NO
Info: Using AMBER format force field!
Info: AMBER PARM FILE        mobley_2295058.prmtop
Info: COORDINATE PDB         mobley_2295058.pdb
Info: Exclusions will be read from PARM file!
Info: SCNB (VDW SCALING)     2
Info: USING ARITHMETIC MEAN TO COMBINE L-J SIGMA PARAMETERS
Info: BINARY COORDINATES     mobley_2295058_min.coor
Info: SUMMARY OF PARAMETERS:
Info: 11 BONDS
Info: 11 ANGLES
Info:   11 HARMONIC
Info:   0 COSINE-BASED
Info: 7 DIHEDRAL
Info: 0 IMPROPER
Info: 0 CROSSTERM
Info: 0 VDW
Info: 45 VDW_PAIRS
Info: 0 NBTHOLE_PAIRS
Info: STRUCTURE SUMMARY:
Info: 2941 ATOMS
Info: 2941 BONDS
Info: 29 ANGLES
Info: 43 DIHEDRALS
Info: 0 IMPROPERS
Info: 0 CROSSTERMS
Info: 3002 EXCLUSIONS
Info: 19 FIXED ATOMS
Info: 2930 RIGID BONDS
Info: 8 RIGID BONDS BETWEEN FIXED ATOMS
Info: 5844 DEGREES OF FREEDOM
Info: 985 HYDROGEN GROUPS
Info: 4 ATOMS IN LARGEST HYDROGEN GROUP
Info: 985 MIGRATION GROUPS
Info: 4 ATOMS IN LARGEST MIGRATION GROUP
Info: 11 HYDROGEN GROUPS WITH ALL ATOMS FIXED
Info: TOTAL MASS = 17699.7 amu
Info: TOTAL CHARGE = -0.000200037 e
Info: MASS DENSITY = 0.690688 g/cm^3
Info: ATOM DENSITY = 0.0691116 atoms/A^3
Info: ADDED 0 IMPLICIT EXCLUSIONS
Info: NONBONDED TABLE R-SQUARED SPACING: 0.0625
Info: NONBONDED TABLE SIZE: 705 POINTS
Info: REMOVING COM VELOCITY -0.0422467 -0.0893843 -0.0591688
TCL: Running for 100000 steps
ETITLE: TS BOND ANGLE DIHED IMPRP ELECT VDW BOUNDARY MISC KINETIC TOTAL TEMP POTENTIAL TOTAL3 TEMPAVG PRESSURE GPRESSURE VOLUME PRESSAVG GPRESSAVG
ENERGY: 0 0.0000 0.0000 0.0000 0.0000 -13702.9694 2338.7596 0.0000 0.0000 1721.5424 -9642.6674 296.4817 -11364.2097 -9642.3333 296.4817 66.4217 95.6673 42554.3672 66.4217 95.6673
ENERGY: 100000 0.0000 0.0000 0.0000 0.0000 -14177.2981 2430.4735 0.0000 0.0000 173.8277 -11572.9969 29.9364 -11746.8247 -11572.5464 30.8515 -246.2610 -193.3918 29190.0597 3.9784 4.0135
TCL: Running 100000 steps at 60 kelvin.
TCL: Setting parameter langevinTemp to 60
TCL: Running for 100000 steps
ETITLE: TS BOND ANGLE DIHED IMPRP ELECT VDW BOUNDARY MISC KINETIC TOTAL TEMP POTENTIAL TOTAL3 TEMPAVG PRESSURE GPRESSURE VOLUME PRESSAVG GPRESSAVG
ENERGY: 100000 0.0000 0.0000 0.0000 0.0000 -14177.2981 2430.4735 0.0000 0.0000 173.7422 -11573.0825 29.9216 -11746.8247 -11572.6940 29.9216 -246.6023 -193.2698 29190.0597 -246.6023 -193.2698
ENERGY: 200000 0.0000 0.0000 0.0000 0.0000 -14099.2506 2370.3488 0.0000 0.0000 356.6721 -11372.2297 61.4256 -11728.9018 -11371.2590 59.9756 -501.3024 -471.7399 28934.5016 2.2923 2.3456
TCL: Running 100000 steps at 90 kelvin.
TCL: Setting parameter langevinTemp to 90
TCL: Running for 100000 steps
ETITLE: TS BOND ANGLE DIHED IMPRP ELECT VDW BOUNDARY MISC KINETIC TOTAL TEMP POTENTIAL TOTAL3 TEMPAVG PRESSURE GPRESSURE VOLUME PRESSAVG GPRESSAVG
ENERGY: 200000 0.0000 0.0000 0.0000 0.0000 -14099.2506 2370.3488 0.0000 0.0000 356.4986 -11372.4032 61.3957 -11728.9018 -11371.5471 61.3957 -519.1152 -471.5080 28934.5016 -519.1152 -471.5080
ENERGY: 300000 0.0000 0.0000 0.0000 0.0000 -13908.1590 2287.3845 0.0000 0.0000 529.8038 -11090.9706 91.2421 -11620.7744 -11090.1454 89.9429 -977.1188 -883.2013 29282.3561 4.0172 4.0093
TCL: Running 100000 steps at 120 kelvin.
TCL: Setting parameter langevinTemp to 120
TCL: Running for 100000 steps
ETITLE: TS BOND ANGLE DIHED IMPRP ELECT VDW BOUNDARY MISC KINETIC TOTAL TEMP POTENTIAL TOTAL3 TEMPAVG PRESSURE GPRESSURE VOLUME PRESSAVG GPRESSAVG
ENERGY: 300000 0.0000 0.0000 0.0000 0.0000 -13908.1590 2287.3845 0.0000 0.0000 529.5568 -11091.2176 91.1996 -11620.7744 -11090.1584 91.1996 -940.8174 -882.7564 29282.3561 -940.8174 -882.7564
ENERGY: 400000 0.0000 0.0000 0.0000 0.0000 -13804.3974 2321.0276 0.0000 0.0000 700.1871 -10783.1827 120.5853 -11483.3698 -10781.7155 119.9439 91.2514 122.3025 28753.9664 4.5493 4.5829
TCL: Running 100000 steps at 150 kelvin.
TCL: Setting parameter langevinTemp to 150
TCL: Running for 100000 steps
ETITLE: TS BOND ANGLE DIHED IMPRP ELECT VDW BOUNDARY MISC KINETIC TOTAL TEMP POTENTIAL TOTAL3 TEMPAVG PRESSURE GPRESSURE VOLUME PRESSAVG GPRESSAVG
ENERGY: 400000 0.0000 0.0000 0.0000 0.0000 -13804.3974 2321.0276 0.0000 0.0000 699.8450 -10783.5248 120.5264 -11483.3698 -10782.1799 120.5264 67.0752 122.7436 28753.9664 67.0752 122.7436
ENERGY: 500000 0.0000 0.0000 0.0000 0.0000 -13546.7740 2227.1355 0.0000 0.0000 877.8086 -10441.8299 151.1750 -11319.6385 -10439.5467 149.8751 -187.1849 -153.7075 28928.4602 3.8869 3.8045
TCL: Running 100000 steps at 180 kelvin.
TCL: Setting parameter langevinTemp to 180
TCL: Running for 100000 steps
ETITLE: TS BOND ANGLE DIHED IMPRP ELECT VDW BOUNDARY MISC KINETIC TOTAL TEMP POTENTIAL TOTAL3 TEMPAVG PRESSURE GPRESSURE VOLUME PRESSAVG GPRESSAVG
ENERGY: 500000 0.0000 0.0000 0.0000 0.0000 -13546.7740 2227.1355 0.0000 0.0000 877.3771 -10442.2614 151.1007 -11319.6385 -10440.3813 151.1007 -208.1318 -153.7128 28928.4602 -208.1318 -153.7128
ENERGY: 600000 0.0000 0.0000 0.0000 0.0000 -13205.6834 2166.7409 0.0000 0.0000 1054.0958 -9984.8466 181.5350 -11038.9424 -9980.6435 180.0276 391.5898 437.6929 28886.2453 4.0297 4.0244
TCL: Running 100000 steps at 210 kelvin.
TCL: Setting parameter langevinTemp to 210
TCL: Running for 100000 steps
ETITLE: TS BOND ANGLE DIHED IMPRP ELECT VDW BOUNDARY MISC KINETIC TOTAL TEMP POTENTIAL TOTAL3 TEMPAVG PRESSURE GPRESSURE VOLUME PRESSAVG GPRESSAVG
ENERGY: 600000 0.0000 0.0000 0.0000 0.0000 -13205.6834 2166.7409 0.0000 0.0000 1053.5699 -9985.3726 181.4444 -11038.9424 -9983.4213 181.4444 388.3806 439.4059 28886.2453 388.3806 439.4059
ENERGY: 700000 0.0000 0.0000 0.0000 0.0000 -12485.4164 1873.1421 0.0000 0.0000 1218.1780 -9394.0963 209.7930 -10612.2743 -9389.8828 210.2379 -177.7347 -148.8761 28732.0193 3.0234 3.0865
TCL: Running 100000 steps at 240 kelvin.
TCL: Setting parameter langevinTemp to 240
TCL: Running for 100000 steps
ETITLE: TS BOND ANGLE DIHED IMPRP ELECT VDW BOUNDARY MISC KINETIC TOTAL TEMP POTENTIAL TOTAL3 TEMPAVG PRESSURE GPRESSURE VOLUME PRESSAVG GPRESSAVG
ENERGY: 700000 0.0000 0.0000 0.0000 0.0000 -12485.4164 1873.1421 0.0000 0.0000 1217.5633 -9394.7110 209.6871 -10612.2743 -9392.6317 209.6871 -224.1643 -146.8255 28732.0193 -224.1643 -146.8255
ENERGY: 800000 0.0000 0.0000 0.0000 0.0000 -11725.9943 1634.0815 0.0000 0.0000 1358.2916 -8733.6212 233.9231 -10091.9128 -8731.7795 240.4536 -686.5371 -606.3747 29249.8126 2.2080 2.0950
TCL: Running 100000 steps at 270 kelvin.
TCL: Setting parameter langevinTemp to 270
TCL: Running for 100000 steps
ETITLE: TS BOND ANGLE DIHED IMPRP ELECT VDW BOUNDARY MISC KINETIC TOTAL TEMP POTENTIAL TOTAL3 TEMPAVG PRESSURE GPRESSURE VOLUME PRESSAVG GPRESSAVG
ENERGY: 800000 0.0000 0.0000 0.0000 0.0000 -11725.9943 1634.0815 0.0000 0.0000 1357.6118 -8734.3010 233.8061 -10091.9128 -8732.1840 233.8061 -693.9784 -607.3348 29249.8126 -693.9784 -607.3348
ENERGY: 900000 0.0000 0.0000 0.0000 0.0000 -11348.6677 1584.6559 0.0000 0.0000 1552.2626 -8211.7491 267.3286 -9764.0117 -8210.0270 269.8982 153.2055 297.1992 29313.6483 2.9605 2.9349
TCL: Running 1000000 steps at 300 kelvin.
TCL: Setting parameter langevinTemp to 300
TCL: Running for 1000000 steps
ETITLE: TS BOND ANGLE DIHED IMPRP ELECT VDW BOUNDARY MISC KINETIC TOTAL TEMP POTENTIAL TOTAL3 TEMPAVG PRESSURE GPRESSURE VOLUME PRESSAVG GPRESSAVG
ENERGY: 900000 0.0000 0.0000 0.0000 0.0000 -11348.6677 1584.6559 0.0000 0.0000 1551.4571 -8212.5546 267.1898 -9764.0117 -8210.2342 267.1898 203.0066 294.3978 29313.6483 203.0066 294.3978
ENERGY: 1100000 0.0000 0.0000 0.0000 0.0000 -10795.0942 1489.5714 0.0000 0.0000 1771.8279 -7533.6949 305.1418 -9305.5228 -7528.9168 300.3298 644.7213 723.6566 30194.5226 2.1994 2.2715
ENERGY: 1300000 0.0000 0.0000 0.0000 0.0000 -10920.7215 1588.5474 0.0000 0.0000 1736.1793 -7595.9947 299.0025 -9332.1740 -7594.4195 300.1490 873.6882 1036.1443 30600.9731 3.6498 3.6908
ENERGY: 1500000 0.0000 0.0000 0.0000 0.0000 -10772.1838 1409.9259 0.0000 0.0000 1731.5330 -7630.7249 298.2023 -9362.2579 -7626.1476 299.6144 -138.9486 -109.3411 30221.8100 1.7977 1.6851
ENERGY: 1700000 0.0000 0.0000 0.0000 0.0000 -10742.5872 1368.2579 0.0000 0.0000 1758.2079 -7616.1214 302.7962 -9374.3293 -7613.2506 300.3724 -683.9301 -559.8525 30451.4371 3.2421 3.3280
ENERGY: 1900000 0.0000 0.0000 0.0000 0.0000 -10720.9225 1381.0475 0.0000 0.0000 1698.4238 -7641.4512 292.5003 -9339.8750 -7637.4143 300.2639 -718.9227 -627.7058 30750.9986 3.4047 3.2629
TCL: Exiting due to exit command.
