Info: SIMULATION PARAMETERS:
Info: TIMESTEP               2
Info: NUMBER OF STEPS        0
Info: STEPS PER CYCLE        10
Info: PERIODIC CELL BASIS 1  37.38 0 0
Info: PERIODIC CELL BASIS 2  0 36.611 0
Info: PERIODIC CELL BASIS 3  0 0 33.088
Info: PERIODIC CELL CENTER   0 0 0
Info: WRAPPING WATERS AROUND PERIODIC BOUNDARIES ON OUTPUT.
Info: WRAPPING ALL CLUSTERS AROUND PERIODIC BOUNDARIES ON OUTPUT.
Info: FIRST LDB TIMESTEP     50
Info: LAST LDB TIMESTEP     -1
Info: HOM BACKGROUND SCALING 1
Info: PME BACKGROUND SCALING 1
Info: MIN ATOMS PER PATCH    40
Info: EMPTY PATCH LOAD       40 ATOMS
Info: INITIAL TEMPERATURE    300
Info: CENTER OF MASS MOVING INITIALLY? NO
Info: DIELECTRIC             1
Info: EXCLUDE                SCALED ONE-FOUR
Info: 1-4 ELECTROSTATICS SCALED BY 0.833333
Info: MODIFIED 1-4 VDW PARAMETERS WILL BE USED
Info: DCD FILENAME           mobley_8883511_equil.dcd
Info: DCD FREQUENCY          100000
Info: DCD FIRST STEP         100000
Info: DCD FILE WILL CONTAIN UNIT CELL DATA
Info: XST FILENAME           mobley_8883511_equil.xst
Info: XST FREQUENCY          100000
Info: NO VELOCITY DCD OUTPUT
Info: NO FORCE DCD OUTPUT
Info: OUTPUT FILENAME        mobley_8883511_equil
Info: BINARY OUTPUT FILES WILL BE USED
Info: RESTART FILENAME       mobley_8883511_equil.restart
Info: RESTART FREQUENCY      100000
Info: BINARY RESTART FILES WILL BE USED
Info: CUTOFF                 9
Info: PAIRLIST DISTANCE      11
Info: PAIRLIST SHRINK RATE   0.01
Info: PAIRLIST GROW RATE     0.01
Info: PAIRLIST TRIGGER       0.3
Info: PAIRLISTS PER CYCLE    2
Info: PAIRLISTS ENABLED
Info: MARGIN                 8
Info: HYDROGEN GROUP CUTOFF  2.5
Info: PATCH DIMENSION        21.5
Info: ENERGY OUTPUT STEPS    100000
Info: ENERGY EVALUATION STEPS    100000
Info: OUTPUT ENERGY PRECISION 4
Info: CROSSTERM ENERGY INCLUDED IN DIHEDRAL
Info: TIMING OUTPUT STEPS    1000000
Info: PRESSURE OUTPUT STEPS  100000
Info: FIXED ATOMS ACTIVE
Info: LANGEVIN DYNAMICS ACTIVE
Info: LANGEVIN TEMPERATURE   30
Info: LANGEVIN USING BBK INTEGRATOR
Info: LANGEVIN DAMPING COEFFICIENT IS 1 INVERSE PS
Info: LANGEVIN DYNAMICS APPLIED TO HYDROGENS
Info: LANGEVIN PISTON PRESSURE CONTROL ACTIVE
Info:        TARGET PRESSURE IS 1.01325 BAR
Info:     OSCILLATION PERIOD IS 50 FS
Info:             DECAY TIME IS 25 FS
Info:     PISTON TEMPERATURE IS 300 K
Info:       PRESSURE CONTROL IS GROUP-BASED
Info:    INITIAL STRAIN RATE IS 0 0 0
Info:       CELL FLUCTUATION IS ISOTROPIC
Info: PARTICLE MESH EWALD (PME) ACTIVE
Info: PME TOLERANCE               1e-06
Info: PME EWALD COEFFICIENT       0.348832
Info: PME INTERPOLATION ORDER     4
Info: PME GRID DIMENSIONS         40 40 36
Info: PME MAXIMUM GRID SPACING    1
Info: FULL ELECTROSTATIC EVALUATION FREQUENCY      2
Info: USING VERLET I (r-RESPA) MTS SCHEME.
Info: C1 SPLITTING OF LONG RANGE ELECTROSTATICS
Info: PLACING ATOMS IN PATCHES BY HYDROGEN GROUPS
Info: RIGID BONDS TO HYDROGEN : ALL
Info:         ERROR TOLERANCE : 1e-08
Info:          MAX ITERATIONS : 100
Info: RIGID WATER USING SETTLE ALGORITHM
Info: RANDOM NUMBER SEED     1744087976
Info: USE HYDROGEN BONDS?    NO
Info: Using AMBER format force field!
Info: AMBER PARM FILE        mobley_8883511.prmtop
Info: COORDINATE PDB         mobley_8883511.pdb
Info: Exclusions will be read from PARM file!
Info: SCNB (VDW SCALING)     2
Info: USING ARITHMETIC MEAN TO COMBINE L-J SIGMA PARAMETERS
Info: BINARY COORDINATES     mobley_8883511_min.coor
Info: SUMMARY OF PARAMETERS:
Info: 9 BONDS
Info: 9 ANGLES
Info:   9 HARMONIC
Info:   0 COSINE-BASED
Info: 5 DIHEDRAL
Info: 0 IMPROPER
Info: 0 CROSSTERM
Info: 0 VDW
Info: 36 VDW_PAIRS
Info: 0 NBTHOLE_PAIRS
Info: STRUCTURE SUMMARY:
Info: 2975 ATOMS
Info: 2975 BONDS
Info: 27 ANGLES
Info: 41 DIHEDRALS
Info: 0 IMPROPERS
Info: 0 CROSSTERMS
Info: 3033 EXCLUSIONS
Info: 17 FIXED ATOMS
Info: 2966 RIGID BONDS
Info: 8 RIGID BONDS BETWEEN FIXED ATOMS
Info: 5916 DEGREES OF FREEDOM
Info: 995 HYDROGEN GROUPS
Info: 4 ATOMS IN LARGEST HYDROGEN GROUP
Info: 995 MIGRATION GROUPS
Info: 4 ATOMS IN LARGEST MIGRATION GROUP
Info: 9 HYDROGEN GROUPS WITH ALL ATOMS FIXED
Info: TOTAL MASS = 17883.9 amu
Info: TOTAL CHARGE = 2.74449e-08 e
Info: MASS DENSITY = 0.655844 g/cm^3
Info: ATOM DENSITY = 0.0657 atoms/A^3
Info: ADDED 0 IMPLICIT EXCLUSIONS
Info: NONBONDED TABLE R-SQUARED SPACING: 0.0625
Info: NONBONDED TABLE SIZE: 705 POINTS
Info: REMOVING COM VELOCITY -0.0688835 0.118759 -0.0925473
TCL: Running for 100000 steps
ETITLE: TS BOND ANGLE DIHED IMPRP ELECT VDW BOUNDARY MISC KINETIC TOTAL TEMP POTENTIAL TOTAL3 TEMPAVG PRESSURE GPRESSURE VOLUME PRESSAVG GPRESSAVG
ENERGY: 0 0.0000 0.0000 0.0000 0.0000 -13777.3220 2411.2640 0.0000 0.0000 1755.1738 -9610.8841 298.5949 -11366.0579 -9610.5558 298.5949 410.4634 450.4542 45281.5626 410.4634 450.4542
ENERGY: 100000 0.0000 0.0000 0.0000 0.0000 -14411.5832 2492.9820 0.0000 0.0000 172.8956 -11745.7056 29.4135 -11918.6012 -11745.4360 30.9203 -3.6103 35.8437 28904.5719 3.9877 4.0023
TCL: Running 100000 steps at 60 kelvin.
TCL: Setting parameter langevinTemp to 60
TCL: Running for 100000 steps
ETITLE: TS BOND ANGLE DIHED IMPRP ELECT VDW BOUNDARY MISC KINETIC TOTAL TEMP POTENTIAL TOTAL3 TEMPAVG PRESSURE GPRESSURE VOLUME PRESSAVG GPRESSAVG
ENERGY: 100000 0.0000 0.0000 0.0000 0.0000 -14411.5832 2492.9820 0.0000 0.0000 172.8101 -11745.7911 29.3989 -11918.6012 -11745.4501 29.3989 -6.2002 35.7586 28904.5719 -6.2002 35.7586
ENERGY: 200000 0.0000 0.0000 0.0000 0.0000 -14391.6464 2574.2900 0.0000 0.0000 352.4672 -11464.8891 59.9627 -11817.3563 -11463.8851 59.9178 1229.7080 1263.4190 28609.0218 4.3531 4.4316
TCL: Running 100000 steps at 90 kelvin.
TCL: Setting parameter langevinTemp to 90
TCL: Running for 100000 steps
ETITLE: TS BOND ANGLE DIHED IMPRP ELECT VDW BOUNDARY MISC KINETIC TOTAL TEMP POTENTIAL TOTAL3 TEMPAVG PRESSURE GPRESSURE VOLUME PRESSAVG GPRESSAVG
ENERGY: 200000 0.0000 0.0000 0.0000 0.0000 -14391.6464 2574.2900 0.0000 0.0000 352.2924 -11465.0639 59.9329 -11817.3563 -11464.4304 59.9329 1229.6013 1263.3535 28609.0218 1229.6013 1263.3535
ENERGY: 300000 0.0000 0.0000 0.0000 0.0000 -14211.5562 2476.7852 0.0000 0.0000 540.8916 -11193.8794 92.0179 -11734.7710 -11193.1796 89.8628 784.8889 823.7891 28487.3719 3.8066 3.8698
TCL: Running 100000 steps at 120 kelvin.
TCL: Setting parameter langevinTemp to 120
TCL: Running for 100000 steps
ETITLE: TS BOND ANGLE DIHED IMPRP ELECT VDW BOUNDARY MISC KINETIC TOTAL TEMP POTENTIAL TOTAL3 TEMPAVG PRESSURE GPRESSURE VOLUME PRESSAVG GPRESSAVG
ENERGY: 300000 0.0000 0.0000 0.0000 0.0000 -14211.5562 2476.7852 0.0000 0.0000 540.6394 -11194.1316 91.9750 -11734.7710 -11192.9589 91.9750 788.6557 823.9313 28487.3719 788.6557 823.9313
ENERGY: 400000 0.0000 0.0000 0.0000 0.0000 -13899.0779 2292.8054 0.0000 0.0000 708.9684 -10897.3041 120.6116 -11606.2726 -10895.2473 119.8632 -368.1952 -316.7584 28820.4383 2.4471 2.5521
TCL: Running 100000 steps at 150 kelvin.
TCL: Setting parameter langevinTemp to 150
TCL: Running for 100000 steps
ETITLE: TS BOND ANGLE DIHED IMPRP ELECT VDW BOUNDARY MISC KINETIC TOTAL TEMP POTENTIAL TOTAL3 TEMPAVG PRESSURE GPRESSURE VOLUME PRESSAVG GPRESSAVG
ENERGY: 400000 0.0000 0.0000 0.0000 0.0000 -13899.0779 2292.8054 0.0000 0.0000 708.6159 -10897.6567 120.5516 -11606.2726 -10896.2592 120.5516 -354.9107 -316.9942 28820.4383 -354.9107 -316.9942
ENERGY: 500000 0.0000 0.0000 0.0000 0.0000 -13826.4103 2395.8827 0.0000 0.0000 900.6994 -10529.8282 153.2294 -11430.5276 -10528.4037 149.9710 1036.6525 1059.0018 28990.0829 5.6708 5.6576
TCL: Running 100000 steps at 180 kelvin.
TCL: Setting parameter langevinTemp to 180
TCL: Running for 100000 steps
ETITLE: TS BOND ANGLE DIHED IMPRP ELECT VDW BOUNDARY MISC KINETIC TOTAL TEMP POTENTIAL TOTAL3 TEMPAVG PRESSURE GPRESSURE VOLUME PRESSAVG GPRESSAVG
ENERGY: 500000 0.0000 0.0000 0.0000 0.0000 -13826.4103 2395.8827 0.0000 0.0000 900.2727 -10530.2548 153.1568 -11430.5276 -10528.5169 153.1568 1011.8380 1057.2538 28990.0829 1011.8380 1057.2538
ENERGY: 600000 0.0000 0.0000 0.0000 0.0000 -13325.3027 2196.6123 0.0000 0.0000 1034.0872 -10094.6032 175.9217 -11128.6904 -10091.8313 180.0306 643.5027 707.4858 28869.8006 5.0661 5.0208
TCL: Running 100000 steps at 210 kelvin.
TCL: Setting parameter langevinTemp to 210
TCL: Running for 100000 steps
ETITLE: TS BOND ANGLE DIHED IMPRP ELECT VDW BOUNDARY MISC KINETIC TOTAL TEMP POTENTIAL TOTAL3 TEMPAVG PRESSURE GPRESSURE VOLUME PRESSAVG GPRESSAVG
ENERGY: 600000 0.0000 0.0000 0.0000 0.0000 -13325.3027 2196.6123 0.0000 0.0000 1033.5568 -10095.1336 175.8314 -11128.6904 -10093.6432 175.8314 642.2749 708.0436 28869.8006 642.2749 708.0436
ENERGY: 700000 0.0000 0.0000 0.0000 0.0000 -12530.5391 1867.0408 0.0000 0.0000 1226.4254 -9437.0728 208.6428 -10663.4983 -9434.0459 210.1728 -462.0380 -416.9650 29233.5617 3.6399 3.4983
TCL: Running 100000 steps at 240 kelvin.
TCL: Setting parameter langevinTemp to 240
TCL: Running for 100000 steps
ETITLE: TS BOND ANGLE DIHED IMPRP ELECT VDW BOUNDARY MISC KINETIC TOTAL TEMP POTENTIAL TOTAL3 TEMPAVG PRESSURE GPRESSURE VOLUME PRESSAVG GPRESSAVG
ENERGY: 700000 0.0000 0.0000 0.0000 0.0000 -12530.5391 1867.0408 0.0000 0.0000 1225.8356 -9437.6626 208.5424 -10663.4983 -9435.4365 208.5424 -483.6937 -416.4475 29233.5617 -483.6937 -416.4475
ENERGY: 800000 0.0000 0.0000 0.0000 0.0000 -11922.8003 1703.5718 0.0000 0.0000 1406.0813 -8813.1471 239.2063 -10219.2284 -8810.3319 240.1538 -354.8997 -207.4730 29250.1765 3.1791 3.2712
TCL: Running 100000 steps at 270 kelvin.
TCL: Setting parameter langevinTemp to 270
TCL: Running for 100000 steps
ETITLE: TS BOND ANGLE DIHED IMPRP ELECT VDW BOUNDARY MISC KINETIC TOTAL TEMP POTENTIAL TOTAL3 TEMPAVG PRESSURE GPRESSURE VOLUME PRESSAVG GPRESSAVG
ENERGY: 800000 0.0000 0.0000 0.0000 0.0000 -11922.8003 1703.5718 0.0000 0.0000 1405.3842 -8813.8442 239.0877 -10219.2284 -8811.6922 239.0877 -292.6607 -209.1912 29250.1765 -292.6607 -209.1912
ENERGY: 900000 0.0000 0.0000 0.0000 0.0000 -11311.4014 1541.9401 0.0000 0.0000 1582.2501 -8187.2112 269.1766 -9769.4613 -8182.8458 269.2162 -287.0705 -174.6285 29845.6573 3.9694 3.7384
TCL: Running 1000000 steps at 300 kelvin.
TCL: Setting parameter langevinTemp to 300
TCL: Running for 1000000 steps
ETITLE: TS BOND ANGLE DIHED IMPRP ELECT VDW BOUNDARY MISC KINETIC TOTAL TEMP POTENTIAL TOTAL3 TEMPAVG PRESSURE GPRESSURE VOLUME PRESSAVG GPRESSAVG
ENERGY: 900000 0.0000 0.0000 0.0000 0.0000 -11311.4014 1541.9401 0.0000 0.0000 1581.4707 -8187.9907 269.0440 -9769.4613 -8186.7145 269.0440 -265.7358 -173.8540 29845.6573 -265.7358 -173.8540
ENERGY: 1100000 0.0000 0.0000 0.0000 0.0000 -10856.2692 1484.3799 0.0000 0.0000 1748.1302 -7623.7591 297.3966 -9371.8893 -7620.7654 300.8531 213.7660 335.3640 30671.6805 3.2915 3.2081
ENERGY: 1300000 0.0000 0.0000 0.0000 0.0000 -10859.3135 1448.6556 0.0000 0.0000 1765.9697 -7644.6882 300.4315 -9410.6579 -7639.6814 300.0274 3.3012 70.5267 30518.9040 2.6732 2.5804
ENERGY: 1500000 0.0000 0.0000 0.0000 0.0000 -10799.9751 1437.1669 0.0000 0.0000 1778.6800 -7584.1283 302.5938 -9362.8083 -7581.1192 300.3563 137.0255 238.0547 30424.6343 2.5222 2.4086
ENERGY: 1700000 0.0000 0.0000 0.0000 0.0000 -10817.0776 1415.9282 0.0000 0.0000 1773.8655 -7627.2840 301.7747 -9401.1494 -7623.4994 299.4893 -270.5300 -189.0089 30731.2838 1.6243 1.5483
ENERGY: 1900000 0.0000 0.0000 0.0000 0.0000 -10794.4078 1383.2020 0.0000 0.0000 1707.7240 -7703.4819 290.5226 -9411.2059 -7697.4380 300.0379 -719.8995 -675.3544 30805.7879 3.5899 3.3648
TCL: Exiting due to exit command.
