Info: SIMULATION PARAMETERS:
Info: TIMESTEP               2
Info: NUMBER OF STEPS        0
Info: STEPS PER CYCLE        10
Info: PERIODIC CELL BASIS 1  37.38 0 0
Info: PERIODIC CELL BASIS 2  0 35.411 0
Info: PERIODIC CELL BASIS 3  0 0 33.876
Info: PERIODIC CELL CENTER   0 0 0
Info: WRAPPING WATERS AROUND PERIODIC BOUNDARIES ON OUTPUT.
Info: WRAPPING ALL CLUSTERS AROUND PERIODIC BOUNDARIES ON OUTPUT.
Info: FIRST LDB TIMESTEP     50
Info: LAST LDB TIMESTEP     -1
Info: HOM BACKGROUND SCALING 1
Info: PME BACKGROUND SCALING 1
Info: MIN ATOMS PER PATCH    40
Info: EMPTY PATCH LOAD       40 ATOMS
Info: INITIAL TEMPERATURE    300
Info: CENTER OF MASS MOVING INITIALLY? NO
Info: DIELECTRIC             1
Info: EXCLUDE                SCALED ONE-FOUR
Info: 1-4 ELECTROSTATICS SCALED BY 0.833333
Info: MODIFIED 1-4 VDW PARAMETERS WILL BE USED
Info: DCD FILENAME           mobley_6303022_equil.dcd
Info: DCD FREQUENCY          100000
Info: DCD FIRST STEP         100000
Info: DCD FILE WILL CONTAIN UNIT CELL DATA
Info: XST FILENAME           mobley_6303022_equil.xst
Info: XST FREQUENCY          100000
Info: NO VELOCITY DCD OUTPUT
Info: NO FORCE DCD OUTPUT
Info: OUTPUT FILENAME        mobley_6303022_equil
Info: BINARY OUTPUT FILES WILL BE USED
Info: RESTART FILENAME       mobley_6303022_equil.restart
Info: RESTART FREQUENCY      100000
Info: BINARY RESTART FILES WILL BE USED
Info: CUTOFF                 9
Info: PAIRLIST DISTANCE      11
Info: PAIRLIST SHRINK RATE   0.01
Info: PAIRLIST GROW RATE     0.01
Info: PAIRLIST TRIGGER       0.3
Info: PAIRLISTS PER CYCLE    2
Info: PAIRLISTS ENABLED
Info: MARGIN                 8
Info: HYDROGEN GROUP CUTOFF  2.5
Info: PATCH DIMENSION        21.5
Info: ENERGY OUTPUT STEPS    100000
Info: ENERGY EVALUATION STEPS    100000
Info: OUTPUT ENERGY PRECISION 4
Info: CROSSTERM ENERGY INCLUDED IN DIHEDRAL
Info: TIMING OUTPUT STEPS    1000000
Info: PRESSURE OUTPUT STEPS  100000
Info: FIXED ATOMS ACTIVE
Info: LANGEVIN DYNAMICS ACTIVE
Info: LANGEVIN TEMPERATURE   30
Info: LANGEVIN USING BBK INTEGRATOR
Info: LANGEVIN DAMPING COEFFICIENT IS 1 INVERSE PS
Info: LANGEVIN DYNAMICS APPLIED TO HYDROGENS
Info: LANGEVIN PISTON PRESSURE CONTROL ACTIVE
Info:        TARGET PRESSURE IS 1.01325 BAR
Info:     OSCILLATION PERIOD IS 50 FS
Info:             DECAY TIME IS 25 FS
Info:     PISTON TEMPERATURE IS 300 K
Info:       PRESSURE CONTROL IS GROUP-BASED
Info:    INITIAL STRAIN RATE IS 0 0 0
Info:       CELL FLUCTUATION IS ISOTROPIC
Info: PARTICLE MESH EWALD (PME) ACTIVE
Info: PME TOLERANCE               1e-06
Info: PME EWALD COEFFICIENT       0.348832
Info: PME INTERPOLATION ORDER     4
Info: PME GRID DIMENSIONS         40 36 36
Info: PME MAXIMUM GRID SPACING    1
Info: FULL ELECTROSTATIC EVALUATION FREQUENCY      2
Info: USING VERLET I (r-RESPA) MTS SCHEME.
Info: C1 SPLITTING OF LONG RANGE ELECTROSTATICS
Info: PLACING ATOMS IN PATCHES BY HYDROGEN GROUPS
Info: RIGID BONDS TO HYDROGEN : ALL
Info:         ERROR TOLERANCE : 1e-08
Info:          MAX ITERATIONS : 100
Info: RIGID WATER USING SETTLE ALGORITHM
Info: RANDOM NUMBER SEED     1744086966
Info: USE HYDROGEN BONDS?    NO
Info: Using AMBER format force field!
Info: AMBER PARM FILE        mobley_6303022.prmtop
Info: COORDINATE PDB         mobley_6303022.pdb
Info: Exclusions will be read from PARM file!
Info: SCNB (VDW SCALING)     2
Info: USING ARITHMETIC MEAN TO COMBINE L-J SIGMA PARAMETERS
Info: BINARY COORDINATES     mobley_6303022_min.coor
Info: SUMMARY OF PARAMETERS:
Info: 9 BONDS
Info: 11 ANGLES
Info:   11 HARMONIC
Info:   0 COSINE-BASED
Info: 6 DIHEDRAL
Info: 0 IMPROPER
Info: 0 CROSSTERM
Info: 0 VDW
Info: 36 VDW_PAIRS
Info: 0 NBTHOLE_PAIRS
Info: STRUCTURE SUMMARY:
Info: 2945 ATOMS
Info: 2945 BONDS
Info: 28 ANGLES
Info: 40 DIHEDRALS
Info: 0 IMPROPERS
Info: 0 CROSSTERMS
Info: 3005 EXCLUSIONS
Info: 17 FIXED ATOMS
Info: 2937 RIGID BONDS
Info: 9 RIGID BONDS BETWEEN FIXED ATOMS
Info: 5856 DEGREES OF FREEDOM
Info: 984 HYDROGEN GROUPS
Info: 4 ATOMS IN LARGEST HYDROGEN GROUP
Info: 984 MIGRATION GROUPS
Info: 4 ATOMS IN LARGEST MIGRATION GROUP
Info: 8 HYDROGEN GROUPS WITH ALL ATOMS FIXED
Info: TOTAL MASS = 17690.8 amu
Info: TOTAL CHARGE = -7.45058e-09 e
Info: MASS DENSITY = 0.655143 g/cm^3
Info: ATOM DENSITY = 0.0656774 atoms/A^3
Info: ADDED 0 IMPLICIT EXCLUSIONS
Info: NONBONDED TABLE R-SQUARED SPACING: 0.0625
Info: NONBONDED TABLE SIZE: 705 POINTS
Info: REMOVING COM VELOCITY 0.0936381 -0.225786 -0.234125
TCL: Running for 100000 steps
ETITLE: TS BOND ANGLE DIHED IMPRP ELECT VDW BOUNDARY MISC KINETIC TOTAL TEMP POTENTIAL TOTAL3 TEMPAVG PRESSURE GPRESSURE VOLUME PRESSAVG GPRESSAVG
ENERGY: 0 0.0000 0.0000 0.0000 0.0000 -13677.5988 2413.3716 0.0000 0.0000 1760.6897 -9503.5375 302.6022 -11264.2272 -9503.1830 302.6022 508.5748 534.9406 44840.4139 508.5748 534.9406
ENERGY: 100000 0.0000 0.0000 0.0000 0.0000 -14176.0396 2443.4485 0.0000 0.0000 172.9685 -11559.6226 29.7274 -11732.5911 -11559.1055 30.9326 33.7917 94.1043 28874.4022 3.8746 3.8775
TCL: Running 100000 steps at 60 kelvin.
TCL: Setting parameter langevinTemp to 60
TCL: Running for 100000 steps
ETITLE: TS BOND ANGLE DIHED IMPRP ELECT VDW BOUNDARY MISC KINETIC TOTAL TEMP POTENTIAL TOTAL3 TEMPAVG PRESSURE GPRESSURE VOLUME PRESSAVG GPRESSAVG
ENERGY: 100000 0.0000 0.0000 0.0000 0.0000 -14176.0396 2443.4485 0.0000 0.0000 172.8821 -11559.7090 29.7125 -11732.5911 -11559.3421 29.7125 40.5871 93.9817 28874.4022 40.5871 93.9817
ENERGY: 200000 0.0000 0.0000 0.0000 0.0000 -14093.4879 2386.5980 0.0000 0.0000 354.2944 -11352.5955 60.8911 -11706.8899 -11351.9141 59.9505 -329.3310 -307.0957 28882.2015 3.8886 3.8442
TCL: Running 100000 steps at 90 kelvin.
TCL: Setting parameter langevinTemp to 90
TCL: Running for 100000 steps
ETITLE: TS BOND ANGLE DIHED IMPRP ELECT VDW BOUNDARY MISC KINETIC TOTAL TEMP POTENTIAL TOTAL3 TEMPAVG PRESSURE GPRESSURE VOLUME PRESSAVG GPRESSAVG
ENERGY: 200000 0.0000 0.0000 0.0000 0.0000 -14093.4879 2386.5980 0.0000 0.0000 354.1315 -11352.7584 60.8631 -11706.8899 -11352.0030 60.8631 -358.8850 -307.5465 28882.2015 -358.8850 -307.5465
ENERGY: 300000 0.0000 0.0000 0.0000 0.0000 -13960.0161 2354.7123 0.0000 0.0000 526.8145 -11078.4893 90.5414 -11605.3037 -11077.5610 89.7925 -171.7691 -141.8743 28797.9671 4.1558 4.1304
TCL: Running 100000 steps at 120 kelvin.
TCL: Setting parameter langevinTemp to 120
TCL: Running for 100000 steps
ETITLE: TS BOND ANGLE DIHED IMPRP ELECT VDW BOUNDARY MISC KINETIC TOTAL TEMP POTENTIAL TOTAL3 TEMPAVG PRESSURE GPRESSURE VOLUME PRESSAVG GPRESSAVG
ENERGY: 300000 0.0000 0.0000 0.0000 0.0000 -13960.0161 2354.7123 0.0000 0.0000 526.5532 -11078.7505 90.4965 -11605.3037 -11077.5105 90.4965 -193.1465 -142.4228 28797.9671 -193.1465 -142.4228
ENERGY: 400000 0.0000 0.0000 0.0000 0.0000 -13751.0620 2287.5222 0.0000 0.0000 696.1347 -10767.4051 119.6417 -11463.5398 -10764.7392 119.7254 -258.3152 -210.9713 28736.4574 3.5943 3.5695
TCL: Running 100000 steps at 150 kelvin.
TCL: Setting parameter langevinTemp to 150
TCL: Running for 100000 steps
ETITLE: TS BOND ANGLE DIHED IMPRP ELECT VDW BOUNDARY MISC KINETIC TOTAL TEMP POTENTIAL TOTAL3 TEMPAVG PRESSURE GPRESSURE VOLUME PRESSAVG GPRESSAVG
ENERGY: 400000 0.0000 0.0000 0.0000 0.0000 -13751.0620 2287.5222 0.0000 0.0000 695.7782 -10767.7616 119.5804 -11463.5398 -10766.4124 119.5804 -256.3345 -210.1386 28736.4574 -256.3345 -210.1386
ENERGY: 500000 0.0000 0.0000 0.0000 0.0000 -13438.0337 2145.0611 0.0000 0.0000 860.9912 -10431.9814 147.9749 -11292.9727 -10430.2137 150.0124 -793.7870 -726.1772 28777.3607 2.9815 2.8461
TCL: Running 100000 steps at 180 kelvin.
TCL: Setting parameter langevinTemp to 180
TCL: Running for 100000 steps
ETITLE: TS BOND ANGLE DIHED IMPRP ELECT VDW BOUNDARY MISC KINETIC TOTAL TEMP POTENTIAL TOTAL3 TEMPAVG PRESSURE GPRESSURE VOLUME PRESSAVG GPRESSAVG
ENERGY: 500000 0.0000 0.0000 0.0000 0.0000 -13438.0337 2145.0611 0.0000 0.0000 860.5662 -10432.4065 147.9018 -11292.9727 -10430.6975 147.9018 -762.5556 -726.2046 28777.3607 -762.5556 -726.2046
ENERGY: 600000 0.0000 0.0000 0.0000 0.0000 -13270.9013 2227.4174 0.0000 0.0000 1025.0529 -10018.4311 176.1715 -11043.4840 -10016.8582 179.9681 536.5895 572.0382 29209.9444 3.3039 3.3002
TCL: Running 100000 steps at 210 kelvin.
TCL: Setting parameter langevinTemp to 210
TCL: Running for 100000 steps
ETITLE: TS BOND ANGLE DIHED IMPRP ELECT VDW BOUNDARY MISC KINETIC TOTAL TEMP POTENTIAL TOTAL3 TEMPAVG PRESSURE GPRESSURE VOLUME PRESSAVG GPRESSAVG
ENERGY: 600000 0.0000 0.0000 0.0000 0.0000 -13270.9013 2227.4174 0.0000 0.0000 1024.5356 -10018.9483 176.0826 -11043.4840 -10016.6864 176.0826 516.4051 571.9254 29209.9444 516.4051 571.9254
ENERGY: 700000 0.0000 0.0000 0.0000 0.0000 -12408.8672 1894.9631 0.0000 0.0000 1217.4618 -9296.4423 209.2400 -10513.9041 -9296.5068 209.6967 295.4636 368.9053 28452.7496 4.6711 4.7253
TCL: Running 100000 steps at 240 kelvin.
TCL: Setting parameter langevinTemp to 240
TCL: Running for 100000 steps
ETITLE: TS BOND ANGLE DIHED IMPRP ELECT VDW BOUNDARY MISC KINETIC TOTAL TEMP POTENTIAL TOTAL3 TEMPAVG PRESSURE GPRESSURE VOLUME PRESSAVG GPRESSAVG
ENERGY: 700000 0.0000 0.0000 0.0000 0.0000 -12408.8672 1894.9631 0.0000 0.0000 1216.8753 -9297.0289 209.1392 -10513.9041 -9295.3483 209.1392 302.7766 366.4680 28452.7496 302.7766 366.4680
ENERGY: 800000 0.0000 0.0000 0.0000 0.0000 -11867.5093 1764.5825 0.0000 0.0000 1377.7383 -8725.1885 236.7860 -10102.9268 -8722.7480 239.2459 818.7263 872.6602 28524.5814 2.7798 2.7778
TCL: Running 100000 steps at 270 kelvin.
TCL: Setting parameter langevinTemp to 270
TCL: Running for 100000 steps
ETITLE: TS BOND ANGLE DIHED IMPRP ELECT VDW BOUNDARY MISC KINETIC TOTAL TEMP POTENTIAL TOTAL3 TEMPAVG PRESSURE GPRESSURE VOLUME PRESSAVG GPRESSAVG
ENERGY: 800000 0.0000 0.0000 0.0000 0.0000 -11867.5093 1764.5825 0.0000 0.0000 1377.0041 -8725.9227 236.6598 -10102.9268 -8723.6040 236.6598 770.8152 871.0632 28524.5814 770.8152 871.0632
ENERGY: 900000 0.0000 0.0000 0.0000 0.0000 -11254.1894 1540.9151 0.0000 0.0000 1586.6213 -8126.6529 272.6859 -9713.2743 -8123.2953 269.9451 -343.8338 -230.0905 29851.0700 5.1862 5.1944
TCL: Running 1000000 steps at 300 kelvin.
TCL: Setting parameter langevinTemp to 300
TCL: Running for 1000000 steps
ETITLE: TS BOND ANGLE DIHED IMPRP ELECT VDW BOUNDARY MISC KINETIC TOTAL TEMP POTENTIAL TOTAL3 TEMPAVG PRESSURE GPRESSURE VOLUME PRESSAVG GPRESSAVG
ENERGY: 900000 0.0000 0.0000 0.0000 0.0000 -11254.1894 1540.9151 0.0000 0.0000 1585.7729 -8127.5014 272.5400 -9713.2743 -8125.3498 272.5400 -309.6079 -231.2515 29851.0700 -309.6079 -231.2515
ENERGY: 1100000 0.0000 0.0000 0.0000 0.0000 -10815.8440 1498.4767 0.0000 0.0000 1737.8106 -7579.5567 298.6701 -9317.3673 -7575.1846 299.8551 596.0067 636.4994 30039.6187 2.9073 2.8969
ENERGY: 1300000 0.0000 0.0000 0.0000 0.0000 -10770.0608 1419.5566 0.0000 0.0000 1732.2579 -7618.2464 297.7158 -9350.5043 -7613.0768 300.3478 -182.8850 -93.2898 29930.0865 3.1769 3.0787
ENERGY: 1500000 0.0000 0.0000 0.0000 0.0000 -10777.9109 1477.6276 0.0000 0.0000 1714.9642 -7585.3191 294.7436 -9300.2833 -7583.0517 300.1422 363.4416 487.8328 30220.4739 3.1878 3.1387
ENERGY: 1700000 0.0000 0.0000 0.0000 0.0000 -10843.5720 1488.8920 0.0000 0.0000 1776.5449 -7578.1351 305.3272 -9354.6800 -7576.7372 300.1108 486.2863 659.8624 30028.1614 3.3336 3.4447
ENERGY: 1900000 0.0000 0.0000 0.0000 0.0000 -10586.2047 1311.3130 0.0000 0.0000 1735.2248 -7539.6669 298.2257 -9274.8917 -7535.7976 300.6582 -648.5269 -634.8951 30147.7042 3.4127 3.4006
TCL: Exiting due to exit command.
