Info: SIMULATION PARAMETERS:
Info: TIMESTEP               2
Info: NUMBER OF STEPS        0
Info: STEPS PER CYCLE        10
Info: PERIODIC CELL BASIS 1  37.133 0 0
Info: PERIODIC CELL BASIS 2  0 36.762 0
Info: PERIODIC CELL BASIS 3  0 0 31.561
Info: PERIODIC CELL CENTER   0 0 0
Info: WRAPPING WATERS AROUND PERIODIC BOUNDARIES ON OUTPUT.
Info: WRAPPING ALL CLUSTERS AROUND PERIODIC BOUNDARIES ON OUTPUT.
Info: FIRST LDB TIMESTEP     50
Info: LAST LDB TIMESTEP     -1
Info: HOM BACKGROUND SCALING 1
Info: PME BACKGROUND SCALING 1
Info: MIN ATOMS PER PATCH    40
Info: EMPTY PATCH LOAD       40 ATOMS
Info: INITIAL TEMPERATURE    300
Info: CENTER OF MASS MOVING INITIALLY? NO
Info: DIELECTRIC             1
Info: EXCLUDE                SCALED ONE-FOUR
Info: 1-4 ELECTROSTATICS SCALED BY 0.833333
Info: MODIFIED 1-4 VDW PARAMETERS WILL BE USED
Info: DCD FILENAME           mobley_3715043_equil.dcd
Info: DCD FREQUENCY          100000
Info: DCD FIRST STEP         100000
Info: DCD FILE WILL CONTAIN UNIT CELL DATA
Info: XST FILENAME           mobley_3715043_equil.xst
Info: XST FREQUENCY          100000
Info: NO VELOCITY DCD OUTPUT
Info: NO FORCE DCD OUTPUT
Info: OUTPUT FILENAME        mobley_3715043_equil
Info: BINARY OUTPUT FILES WILL BE USED
Info: RESTART FILENAME       mobley_3715043_equil.restart
Info: RESTART FREQUENCY      100000
Info: BINARY RESTART FILES WILL BE USED
Info: CUTOFF                 9
Info: PAIRLIST DISTANCE      11
Info: PAIRLIST SHRINK RATE   0.01
Info: PAIRLIST GROW RATE     0.01
Info: PAIRLIST TRIGGER       0.3
Info: PAIRLISTS PER CYCLE    2
Info: PAIRLISTS ENABLED
Info: MARGIN                 8
Info: HYDROGEN GROUP CUTOFF  2.5
Info: PATCH DIMENSION        21.5
Info: ENERGY OUTPUT STEPS    100000
Info: ENERGY EVALUATION STEPS    100000
Info: OUTPUT ENERGY PRECISION 4
Info: CROSSTERM ENERGY INCLUDED IN DIHEDRAL
Info: TIMING OUTPUT STEPS    1000000
Info: PRESSURE OUTPUT STEPS  100000
Info: FIXED ATOMS ACTIVE
Info: LANGEVIN DYNAMICS ACTIVE
Info: LANGEVIN TEMPERATURE   30
Info: LANGEVIN USING BBK INTEGRATOR
Info: LANGEVIN DAMPING COEFFICIENT IS 1 INVERSE PS
Info: LANGEVIN DYNAMICS APPLIED TO HYDROGENS
Info: LANGEVIN PISTON PRESSURE CONTROL ACTIVE
Info:        TARGET PRESSURE IS 1.01325 BAR
Info:     OSCILLATION PERIOD IS 50 FS
Info:             DECAY TIME IS 25 FS
Info:     PISTON TEMPERATURE IS 300 K
Info:       PRESSURE CONTROL IS GROUP-BASED
Info:    INITIAL STRAIN RATE IS 0 0 0
Info:       CELL FLUCTUATION IS ISOTROPIC
Info: PARTICLE MESH EWALD (PME) ACTIVE
Info: PME TOLERANCE               1e-06
Info: PME EWALD COEFFICIENT       0.348832
Info: PME INTERPOLATION ORDER     4
Info: PME GRID DIMENSIONS         40 40 32
Info: PME MAXIMUM GRID SPACING    1
Info: FULL ELECTROSTATIC EVALUATION FREQUENCY      2
Info: USING VERLET I (r-RESPA) MTS SCHEME.
Info: C1 SPLITTING OF LONG RANGE ELECTROSTATICS
Info: PLACING ATOMS IN PATCHES BY HYDROGEN GROUPS
Info: RIGID BONDS TO HYDROGEN : ALL
Info:         ERROR TOLERANCE : 1e-08
Info:          MAX ITERATIONS : 100
Info: RIGID WATER USING SETTLE ALGORITHM
Info: RANDOM NUMBER SEED     1743765086
Info: USE HYDROGEN BONDS?    NO
Info: Using AMBER format force field!
Info: AMBER PARM FILE        mobley_3715043.prmtop
Info: COORDINATE PDB         mobley_3715043.pdb
Info: Exclusions will be read from PARM file!
Info: SCNB (VDW SCALING)     2
Info: USING ARITHMETIC MEAN TO COMBINE L-J SIGMA PARAMETERS
Info: BINARY COORDINATES     mobley_3715043_min.coor
Info: SUMMARY OF PARAMETERS:
Info: 6 BONDS
Info: 5 ANGLES
Info:   5 HARMONIC
Info:   0 COSINE-BASED
Info: 3 DIHEDRAL
Info: 0 IMPROPER
Info: 0 CROSSTERM
Info: 0 VDW
Info: 21 VDW_PAIRS
Info: 0 NBTHOLE_PAIRS
Info: STRUCTURE SUMMARY:
Info: 2916 ATOMS
Info: 2917 BONDS
Info: 42 ANGLES
Info: 66 DIHEDRALS
Info: 0 IMPROPERS
Info: 0 CROSSTERMS
Info: 3009 EXCLUSIONS
Info: 24 FIXED ATOMS
Info: 2904 RIGID BONDS
Info: 12 RIGID BONDS BETWEEN FIXED ATOMS
Info: 5784 DEGREES OF FREEDOM
Info: 976 HYDROGEN GROUPS
Info: 4 ATOMS IN LARGEST HYDROGEN GROUP
Info: 976 MIGRATION GROUPS
Info: 4 ATOMS IN LARGEST MIGRATION GROUP
Info: 12 HYDROGEN GROUPS WITH ALL ATOMS FIXED
Info: TOTAL MASS = 17523.6 amu
Info: TOTAL CHARGE = -0.000100028 e
Info: MASS DENSITY = 0.67542 g/cm^3
Info: ATOM DENSITY = 0.0676827 atoms/A^3
Info: ADDED 0 IMPLICIT EXCLUSIONS
Info: NONBONDED TABLE R-SQUARED SPACING: 0.0625
Info: NONBONDED TABLE SIZE: 705 POINTS
Info: REMOVING COM VELOCITY -0.267392 -0.12267 0.094985
TCL: Running for 100000 steps
ETITLE: TS BOND ANGLE DIHED IMPRP ELECT VDW BOUNDARY MISC KINETIC TOTAL TEMP POTENTIAL TOTAL3 TEMPAVG PRESSURE GPRESSURE VOLUME PRESSAVG GPRESSAVG
ENERGY: 0 0.0000 0.0000 0.0000 0.0000 -13478.4021 2363.2543 0.0000 0.0000 1733.4400 -9381.7078 301.6275 -11115.1478 -9381.3578 301.6275 342.3077 375.0849 43083.3955 342.3077 375.0849
ENERGY: 100000 0.0000 0.0000 0.0000 0.0000 -14084.3015 2527.8832 0.0000 0.0000 169.2131 -11387.2052 29.4440 -11556.4183 -11386.7466 30.8623 795.0726 842.6935 28523.7851 3.9902 3.9932
TCL: Running 100000 steps at 60 kelvin.
TCL: Setting parameter langevinTemp to 60
TCL: Running for 100000 steps
ETITLE: TS BOND ANGLE DIHED IMPRP ELECT VDW BOUNDARY MISC KINETIC TOTAL TEMP POTENTIAL TOTAL3 TEMPAVG PRESSURE GPRESSURE VOLUME PRESSAVG GPRESSAVG
ENERGY: 100000 0.0000 0.0000 0.0000 0.0000 -14084.3015 2527.8832 0.0000 0.0000 169.1268 -11387.2914 29.4289 -11556.4183 -11387.0840 29.4289 806.0341 842.9233 28523.7851 806.0341 842.9233
ENERGY: 200000 0.0000 0.0000 0.0000 0.0000 -14040.8622 2513.1197 0.0000 0.0000 343.6513 -11184.0912 59.7971 -11527.7425 -11183.1272 60.0328 1018.9944 1065.6553 27960.7546 4.7640 4.7645
TCL: Running 100000 steps at 90 kelvin.
TCL: Setting parameter langevinTemp to 90
TCL: Running for 100000 steps
ETITLE: TS BOND ANGLE DIHED IMPRP ELECT VDW BOUNDARY MISC KINETIC TOTAL TEMP POTENTIAL TOTAL3 TEMPAVG PRESSURE GPRESSURE VOLUME PRESSAVG GPRESSAVG
ENERGY: 200000 0.0000 0.0000 0.0000 0.0000 -14040.8622 2513.1197 0.0000 0.0000 343.4754 -11184.2671 59.7665 -11527.7425 -11183.6319 59.7665 1024.5804 1065.8049 27960.7546 1024.5804 1065.8049
ENERGY: 300000 0.0000 0.0000 0.0000 0.0000 -13713.7995 2278.2164 0.0000 0.0000 519.1764 -10916.4067 90.3394 -11435.5831 -10914.7834 90.1547 -676.4934 -594.6834 28366.9053 2.3863 2.3803
TCL: Running 100000 steps at 120 kelvin.
TCL: Setting parameter langevinTemp to 120
TCL: Running for 100000 steps
ETITLE: TS BOND ANGLE DIHED IMPRP ELECT VDW BOUNDARY MISC KINETIC TOTAL TEMP POTENTIAL TOTAL3 TEMPAVG PRESSURE GPRESSURE VOLUME PRESSAVG GPRESSAVG
ENERGY: 300000 0.0000 0.0000 0.0000 0.0000 -13713.7995 2278.2164 0.0000 0.0000 518.9182 -10916.6649 90.2944 -11435.5831 -10915.6534 90.2944 -649.5025 -594.0167 28366.9053 -649.5025 -594.0167
ENERGY: 400000 0.0000 0.0000 0.0000 0.0000 -13491.8764 2208.2874 0.0000 0.0000 690.9930 -10592.5960 120.2363 -11283.5889 -10591.1894 120.1149 -571.8433 -525.9979 28189.1043 3.2242 3.1608
TCL: Running 100000 steps at 150 kelvin.
TCL: Setting parameter langevinTemp to 150
TCL: Running for 100000 steps
ETITLE: TS BOND ANGLE DIHED IMPRP ELECT VDW BOUNDARY MISC KINETIC TOTAL TEMP POTENTIAL TOTAL3 TEMPAVG PRESSURE GPRESSURE VOLUME PRESSAVG GPRESSAVG
ENERGY: 400000 0.0000 0.0000 0.0000 0.0000 -13491.8764 2208.2874 0.0000 0.0000 690.6595 -10592.9295 120.1783 -11283.5889 -10591.4469 120.1783 -567.3438 -526.4244 28189.1043 -567.3438 -526.4244
ENERGY: 500000 0.0000 0.0000 0.0000 0.0000 -13236.1169 2125.7339 0.0000 0.0000 900.5326 -10209.8503 156.6973 -11110.3829 -10208.2707 150.2692 -585.0696 -543.3709 28322.3266 2.5482 2.5247
TCL: Running 100000 steps at 180 kelvin.
TCL: Setting parameter langevinTemp to 180
TCL: Running for 100000 steps
ETITLE: TS BOND ANGLE DIHED IMPRP ELECT VDW BOUNDARY MISC KINETIC TOTAL TEMP POTENTIAL TOTAL3 TEMPAVG PRESSURE GPRESSURE VOLUME PRESSAVG GPRESSAVG
ENERGY: 500000 0.0000 0.0000 0.0000 0.0000 -13236.1169 2125.7339 0.0000 0.0000 900.1002 -10210.2827 156.6221 -11110.3829 -10208.5757 156.6221 -597.3064 -543.2368 28322.3266 -597.3064 -543.2368
ENERGY: 600000 0.0000 0.0000 0.0000 0.0000 -12981.1135 2127.6104 0.0000 0.0000 1028.5938 -9824.9094 178.9806 -10853.5031 -9820.9777 179.8274 169.1021 242.5297 28666.3324 5.7382 5.6801
TCL: Running 100000 steps at 210 kelvin.
TCL: Setting parameter langevinTemp to 210
TCL: Running for 100000 steps
ETITLE: TS BOND ANGLE DIHED IMPRP ELECT VDW BOUNDARY MISC KINETIC TOTAL TEMP POTENTIAL TOTAL3 TEMPAVG PRESSURE GPRESSURE VOLUME PRESSAVG GPRESSAVG
ENERGY: 600000 0.0000 0.0000 0.0000 0.0000 -12981.1135 2127.6104 0.0000 0.0000 1028.0723 -9825.4308 178.8899 -10853.5031 -9823.6733 178.8899 183.7585 244.7129 28666.3324 183.7585 244.7129
ENERGY: 700000 0.0000 0.0000 0.0000 0.0000 -12452.2215 2065.9338 0.0000 0.0000 1209.7379 -9176.5498 210.5006 -10386.2877 -9175.1468 209.2963 1766.6804 1871.2470 28038.8898 3.1044 3.0901
TCL: Running 100000 steps at 240 kelvin.
TCL: Setting parameter langevinTemp to 240
TCL: Running for 100000 steps
ETITLE: TS BOND ANGLE DIHED IMPRP ELECT VDW BOUNDARY MISC KINETIC TOTAL TEMP POTENTIAL TOTAL3 TEMPAVG PRESSURE GPRESSURE VOLUME PRESSAVG GPRESSAVG
ENERGY: 700000 0.0000 0.0000 0.0000 0.0000 -12452.2215 2065.9338 0.0000 0.0000 1209.1439 -9177.1438 210.3973 -10386.2877 -9175.3114 210.3973 1789.0241 1870.4722 28038.8898 1789.0241 1870.4722
ENERGY: 800000 0.0000 0.0000 0.0000 0.0000 -11536.8546 1647.7999 0.0000 0.0000 1404.1120 -8484.9427 244.3227 -9889.0546 -8478.8461 239.7150 -162.3825 -85.9760 28912.7415 2.7133 2.7562
TCL: Running 100000 steps at 270 kelvin.
TCL: Setting parameter langevinTemp to 270
TCL: Running for 100000 steps
ETITLE: TS BOND ANGLE DIHED IMPRP ELECT VDW BOUNDARY MISC KINETIC TOTAL TEMP POTENTIAL TOTAL3 TEMPAVG PRESSURE GPRESSURE VOLUME PRESSAVG GPRESSAVG
ENERGY: 800000 0.0000 0.0000 0.0000 0.0000 -11536.8546 1647.7999 0.0000 0.0000 1403.3926 -8485.6620 244.1975 -9889.0546 -8484.1114 244.1975 -171.4926 -82.6129 28912.7415 -171.4926 -82.6129
ENERGY: 900000 0.0000 0.0000 0.0000 0.0000 -10972.1774 1461.7779 0.0000 0.0000 1579.6166 -7930.7829 274.8614 -9510.3995 -7925.6361 269.8929 -497.7255 -390.6211 29176.0808 3.8048 3.5565
TCL: Running 1000000 steps at 300 kelvin.
TCL: Setting parameter langevinTemp to 300
TCL: Running for 1000000 steps
ETITLE: TS BOND ANGLE DIHED IMPRP ELECT VDW BOUNDARY MISC KINETIC TOTAL TEMP POTENTIAL TOTAL3 TEMPAVG PRESSURE GPRESSURE VOLUME PRESSAVG GPRESSAVG
ENERGY: 900000 0.0000 0.0000 0.0000 0.0000 -10972.1774 1461.7779 0.0000 0.0000 1578.8594 -7931.5401 274.7297 -9510.3995 -7929.2424 274.7297 -464.2995 -387.6383 29176.0808 -464.2995 -387.6383
ENERGY: 1100000 0.0000 0.0000 0.0000 0.0000 -10669.9203 1530.7918 0.0000 0.0000 1717.2968 -7421.8317 298.8185 -9139.1285 -7416.1123 300.1041 818.5088 978.7171 30103.0017 3.7716 3.4647
ENERGY: 1300000 0.0000 0.0000 0.0000 0.0000 -10586.9292 1450.8065 0.0000 0.0000 1719.4988 -7416.6239 299.2017 -9136.1227 -7413.7799 299.4896 392.8552 450.3416 29924.7792 3.3960 3.2902
ENERGY: 1500000 0.0000 0.0000 0.0000 0.0000 -10448.5943 1336.1351 0.0000 0.0000 1755.8776 -7356.5815 305.5317 -9112.4592 -7353.9745 300.4385 -392.4601 -317.6829 29862.5324 3.0839 3.1365
ENERGY: 1700000 0.0000 0.0000 0.0000 0.0000 -10619.2705 1389.5930 0.0000 0.0000 1737.0316 -7492.6458 302.2524 -9229.6774 -7488.8202 300.3924 -269.3122 -242.8878 29831.3313 3.4320 3.3076
ENERGY: 1900000 0.0000 0.0000 0.0000 0.0000 -10561.9048 1461.5434 0.0000 0.0000 1697.5258 -7402.8356 295.3782 -9100.3614 -7400.1296 300.8948 406.3389 531.4144 30031.3681 3.1048 2.9344
TCL: Exiting due to exit command.
