Info: SIMULATION PARAMETERS:
Info: TIMESTEP               2
Info: NUMBER OF STEPS        0
Info: STEPS PER CYCLE        10
Info: PERIODIC CELL BASIS 1  37.435 0 0
Info: PERIODIC CELL BASIS 2  0 36.611 0
Info: PERIODIC CELL BASIS 3  0 0 31.855
Info: PERIODIC CELL CENTER   0 0 0
Info: WRAPPING WATERS AROUND PERIODIC BOUNDARIES ON OUTPUT.
Info: WRAPPING ALL CLUSTERS AROUND PERIODIC BOUNDARIES ON OUTPUT.
Info: FIRST LDB TIMESTEP     50
Info: LAST LDB TIMESTEP     -1
Info: HOM BACKGROUND SCALING 1
Info: PME BACKGROUND SCALING 1
Info: MIN ATOMS PER PATCH    40
Info: EMPTY PATCH LOAD       40 ATOMS
Info: INITIAL TEMPERATURE    300
Info: CENTER OF MASS MOVING INITIALLY? NO
Info: DIELECTRIC             1
Info: EXCLUDE                SCALED ONE-FOUR
Info: 1-4 ELECTROSTATICS SCALED BY 0.833333
Info: MODIFIED 1-4 VDW PARAMETERS WILL BE USED
Info: DCD FILENAME           mobley_2261979_equil.dcd
Info: DCD FREQUENCY          100000
Info: DCD FIRST STEP         100000
Info: DCD FILE WILL CONTAIN UNIT CELL DATA
Info: XST FILENAME           mobley_2261979_equil.xst
Info: XST FREQUENCY          100000
Info: NO VELOCITY DCD OUTPUT
Info: NO FORCE DCD OUTPUT
Info: OUTPUT FILENAME        mobley_2261979_equil
Info: BINARY OUTPUT FILES WILL BE USED
Info: RESTART FILENAME       mobley_2261979_equil.restart
Info: RESTART FREQUENCY      100000
Info: BINARY RESTART FILES WILL BE USED
Info: CUTOFF                 9
Info: PAIRLIST DISTANCE      11
Info: PAIRLIST SHRINK RATE   0.01
Info: PAIRLIST GROW RATE     0.01
Info: PAIRLIST TRIGGER       0.3
Info: PAIRLISTS PER CYCLE    2
Info: PAIRLISTS ENABLED
Info: MARGIN                 8
Info: HYDROGEN GROUP CUTOFF  2.5
Info: PATCH DIMENSION        21.5
Info: ENERGY OUTPUT STEPS    100000
Info: ENERGY EVALUATION STEPS    100000
Info: OUTPUT ENERGY PRECISION 4
Info: CROSSTERM ENERGY INCLUDED IN DIHEDRAL
Info: TIMING OUTPUT STEPS    1000000
Info: PRESSURE OUTPUT STEPS  100000
Info: FIXED ATOMS ACTIVE
Info: LANGEVIN DYNAMICS ACTIVE
Info: LANGEVIN TEMPERATURE   30
Info: LANGEVIN USING BBK INTEGRATOR
Info: LANGEVIN DAMPING COEFFICIENT IS 1 INVERSE PS
Info: LANGEVIN DYNAMICS APPLIED TO HYDROGENS
Info: LANGEVIN PISTON PRESSURE CONTROL ACTIVE
Info:        TARGET PRESSURE IS 1.01325 BAR
Info:     OSCILLATION PERIOD IS 50 FS
Info:             DECAY TIME IS 25 FS
Info:     PISTON TEMPERATURE IS 300 K
Info:       PRESSURE CONTROL IS GROUP-BASED
Info:    INITIAL STRAIN RATE IS 0 0 0
Info:       CELL FLUCTUATION IS ISOTROPIC
Info: PARTICLE MESH EWALD (PME) ACTIVE
Info: PME TOLERANCE               1e-06
Info: PME EWALD COEFFICIENT       0.348832
Info: PME INTERPOLATION ORDER     4
Info: PME GRID DIMENSIONS         40 40 32
Info: PME MAXIMUM GRID SPACING    1
Info: FULL ELECTROSTATIC EVALUATION FREQUENCY      2
Info: USING VERLET I (r-RESPA) MTS SCHEME.
Info: C1 SPLITTING OF LONG RANGE ELECTROSTATICS
Info: PLACING ATOMS IN PATCHES BY HYDROGEN GROUPS
Info: RIGID BONDS TO HYDROGEN : ALL
Info:         ERROR TOLERANCE : 1e-08
Info:          MAX ITERATIONS : 100
Info: RIGID WATER USING SETTLE ALGORITHM
Info: RANDOM NUMBER SEED     1743764279
Info: USE HYDROGEN BONDS?    NO
Info: Using AMBER format force field!
Info: AMBER PARM FILE        mobley_2261979.prmtop
Info: COORDINATE PDB         mobley_2261979.pdb
Info: Exclusions will be read from PARM file!
Info: SCNB (VDW SCALING)     2
Info: USING ARITHMETIC MEAN TO COMBINE L-J SIGMA PARAMETERS
Info: BINARY COORDINATES     mobley_2261979_min.coor
Info: SUMMARY OF PARAMETERS:
Info: 7 BONDS
Info: 7 ANGLES
Info: 5 DIHEDRAL
Info: 0 IMPROPER
Info: 0 CROSSTERM
Info: 0 VDW
Info: 21 VDW_PAIRS
Info: 0 NBTHOLE_PAIRS
Info: STRUCTURE SUMMARY:
Info: 2974 ATOMS
Info: 2976 BONDS
Info: 42 ANGLES
Info: 75 DIHEDRALS
Info: 0 IMPROPERS
Info: 0 CROSSTERMS
Info: 3072 EXCLUSIONS
Info: 22 FIXED ATOMS
Info: 2962 RIGID BONDS
Info: 10 RIGID BONDS BETWEEN FIXED ATOMS
Info: 5904 DEGREES OF FREEDOM
Info: 996 HYDROGEN GROUPS
Info: 3 ATOMS IN LARGEST HYDROGEN GROUP
Info: 996 MIGRATION GROUPS
Info: 3 ATOMS IN LARGEST MIGRATION GROUP
Info: 12 HYDROGEN GROUPS WITH ALL ATOMS FIXED
Info: TOTAL MASS = 17881.9 amu
Info: TOTAL CHARGE = 0.000399977 e
Info: MASS DENSITY = 0.680154 g/cm^3
Info: ATOM DENSITY = 0.0681199 atoms/A^3
Info: ADDED 0 IMPLICIT EXCLUSIONS
Info: NONBONDED TABLE R-SQUARED SPACING: 0.0625
Info: NONBONDED TABLE SIZE: 705 POINTS
Info: REMOVING COM VELOCITY 0.183451 0.194385 -0.0281047
TCL: Running for 100000 steps
ETITLE: TS BOND ANGLE DIHED IMPRP ELECT VDW BOUNDARY MISC KINETIC TOTAL TEMP POTENTIAL TOTAL3 TEMPAVG PRESSURE GPRESSURE VOLUME PRESSAVG GPRESSAVG
ENERGY: 0 0.0000 0.0000 0.0000 0.0000 -13735.0970 2365.2553 0.0000 0.0000 1758.9703 -9610.8714 299.8490 -11369.8417 -9610.5121 299.8490 -23.8760 20.8975 43658.3219 -23.8760 20.8975
ENERGY: 100000 0.0000 0.0000 0.0000 0.0000 -14340.1179 2532.1414 0.0000 0.0000 172.2275 -11635.7490 29.3594 -11807.9765 -11635.2495 30.9315 202.2211 272.4725 29760.6137 3.9257 3.9882
TCL: Running 100000 steps at 60 kelvin.
TCL: Setting parameter langevinTemp to 60
TCL: Running for 100000 steps
ETITLE: TS BOND ANGLE DIHED IMPRP ELECT VDW BOUNDARY MISC KINETIC TOTAL TEMP POTENTIAL TOTAL3 TEMPAVG PRESSURE GPRESSURE VOLUME PRESSAVG GPRESSAVG
ENERGY: 100000 0.0000 0.0000 0.0000 0.0000 -14340.1179 2532.1414 0.0000 0.0000 172.1410 -11635.8356 29.3446 -11807.9765 -11635.3781 29.3446 222.6156 272.5624 29760.6137 222.6156 272.5624
ENERGY: 200000 0.0000 0.0000 0.0000 0.0000 -14168.3687 2433.8929 0.0000 0.0000 349.3328 -11385.1431 59.5502 -11734.4758 -11384.5587 59.8979 -215.5610 -151.3148 29341.9799 2.9748 3.0429
TCL: Running 100000 steps at 90 kelvin.
TCL: Setting parameter langevinTemp to 90
TCL: Running for 100000 steps
ETITLE: TS BOND ANGLE DIHED IMPRP ELECT VDW BOUNDARY MISC KINETIC TOTAL TEMP POTENTIAL TOTAL3 TEMPAVG PRESSURE GPRESSURE VOLUME PRESSAVG GPRESSAVG
ENERGY: 200000 0.0000 0.0000 0.0000 0.0000 -14168.3687 2433.8929 0.0000 0.0000 349.1608 -11385.3150 59.5209 -11734.4758 -11384.6897 59.5209 -202.8085 -151.5706 29341.9799 -202.8085 -151.5706
ENERGY: 300000 0.0000 0.0000 0.0000 0.0000 -13994.1691 2354.6255 0.0000 0.0000 541.0303 -11098.5133 92.2286 -11639.5435 -11097.1031 90.1608 -415.6993 -377.9738 29328.6661 4.6732 4.6114
TCL: Running 100000 steps at 120 kelvin.
TCL: Setting parameter langevinTemp to 120
TCL: Running for 100000 steps
ETITLE: TS BOND ANGLE DIHED IMPRP ELECT VDW BOUNDARY MISC KINETIC TOTAL TEMP POTENTIAL TOTAL3 TEMPAVG PRESSURE GPRESSURE VOLUME PRESSAVG GPRESSAVG
ENERGY: 300000 0.0000 0.0000 0.0000 0.0000 -13994.1691 2354.6255 0.0000 0.0000 540.7601 -11098.7835 92.1825 -11639.5435 -11097.9631 92.1825 -430.0044 -377.9368 29328.6661 -430.0044 -377.9368
ENERGY: 400000 0.0000 0.0000 0.0000 0.0000 -13812.3971 2303.6816 0.0000 0.0000 682.6799 -10826.0356 116.3754 -11508.7154 -10825.0566 119.9555 -458.0487 -433.1810 29474.8477 4.0088 4.0217
TCL: Running 100000 steps at 150 kelvin.
TCL: Setting parameter langevinTemp to 150
TCL: Running for 100000 steps
ETITLE: TS BOND ANGLE DIHED IMPRP ELECT VDW BOUNDARY MISC KINETIC TOTAL TEMP POTENTIAL TOTAL3 TEMPAVG PRESSURE GPRESSURE VOLUME PRESSAVG GPRESSAVG
ENERGY: 400000 0.0000 0.0000 0.0000 0.0000 -13812.3971 2303.6816 0.0000 0.0000 682.3119 -10826.4035 116.3127 -11508.7154 -10824.8274 116.3127 -479.7475 -434.1742 29474.8477 -479.7475 -434.1742
ENERGY: 500000 0.0000 0.0000 0.0000 0.0000 -13467.7078 2136.1247 0.0000 0.0000 893.5829 -10438.0002 152.3277 -11331.5831 -10436.7394 150.1427 -880.5106 -787.9999 28953.5629 4.0870 4.0324
TCL: Running 100000 steps at 180 kelvin.
TCL: Setting parameter langevinTemp to 180
TCL: Running for 100000 steps
ETITLE: TS BOND ANGLE DIHED IMPRP ELECT VDW BOUNDARY MISC KINETIC TOTAL TEMP POTENTIAL TOTAL3 TEMPAVG PRESSURE GPRESSURE VOLUME PRESSAVG GPRESSAVG
ENERGY: 500000 0.0000 0.0000 0.0000 0.0000 -13467.7078 2136.1247 0.0000 0.0000 893.1494 -10438.4338 152.2538 -11331.5831 -10436.4646 152.2538 -843.7301 -788.9255 28953.5629 -843.7301 -788.9255
ENERGY: 600000 0.0000 0.0000 0.0000 0.0000 -13177.5553 2112.5499 0.0000 0.0000 1060.1365 -10004.8689 180.7198 -11065.0054 -10001.9568 180.0028 -272.4678 -233.9383 29357.4415 3.6567 3.4030
TCL: Running 100000 steps at 210 kelvin.
TCL: Setting parameter langevinTemp to 210
TCL: Running for 100000 steps
ETITLE: TS BOND ANGLE DIHED IMPRP ELECT VDW BOUNDARY MISC KINETIC TOTAL TEMP POTENTIAL TOTAL3 TEMPAVG PRESSURE GPRESSURE VOLUME PRESSAVG GPRESSAVG
ENERGY: 600000 0.0000 0.0000 0.0000 0.0000 -13177.5553 2112.5499 0.0000 0.0000 1059.6294 -10005.3760 180.6334 -11065.0054 -10003.3326 180.6334 -288.7409 -234.2577 29357.4415 -288.7409 -234.2577
ENERGY: 700000 0.0000 0.0000 0.0000 0.0000 -12492.1862 1894.4418 0.0000 0.0000 1246.8118 -9350.9327 212.5421 -10597.7445 -9346.9356 209.6051 166.3501 215.0922 28646.9807 2.6053 2.6739
TCL: Running 100000 steps at 240 kelvin.
TCL: Setting parameter langevinTemp to 240
TCL: Running for 100000 steps
ETITLE: TS BOND ANGLE DIHED IMPRP ELECT VDW BOUNDARY MISC KINETIC TOTAL TEMP POTENTIAL TOTAL3 TEMPAVG PRESSURE GPRESSURE VOLUME PRESSAVG GPRESSAVG
ENERGY: 700000 0.0000 0.0000 0.0000 0.0000 -12492.1862 1894.4418 0.0000 0.0000 1246.2350 -9351.5095 212.4438 -10597.7445 -9349.2149 212.4438 148.9088 215.1082 28646.9807 148.9088 215.1082
ENERGY: 800000 0.0000 0.0000 0.0000 0.0000 -11992.1477 1803.5480 0.0000 0.0000 1428.4874 -8760.1124 243.5120 -10188.5997 -8756.7181 239.6482 509.7527 587.8684 29209.3895 3.1015 2.9434
TCL: Running 100000 steps at 270 kelvin.
TCL: Setting parameter langevinTemp to 270
TCL: Running for 100000 steps
ETITLE: TS BOND ANGLE DIHED IMPRP ELECT VDW BOUNDARY MISC KINETIC TOTAL TEMP POTENTIAL TOTAL3 TEMPAVG PRESSURE GPRESSURE VOLUME PRESSAVG GPRESSAVG
ENERGY: 800000 0.0000 0.0000 0.0000 0.0000 -11992.1477 1803.5480 0.0000 0.0000 1427.7912 -8760.8085 243.3934 -10188.5997 -8758.7248 243.3934 510.6552 588.5422 29209.3895 510.6552 588.5422
ENERGY: 900000 0.0000 0.0000 0.0000 0.0000 -11499.9709 1730.3649 0.0000 0.0000 1644.1287 -8125.4772 280.2721 -9769.6060 -8123.8652 270.1033 1314.4634 1375.1635 29566.8121 3.4340 3.1786
TCL: Running 1000000 steps at 300 kelvin.
TCL: Setting parameter langevinTemp to 300
TCL: Running for 1000000 steps
ETITLE: TS BOND ANGLE DIHED IMPRP ELECT VDW BOUNDARY MISC KINETIC TOTAL TEMP POTENTIAL TOTAL3 TEMPAVG PRESSURE GPRESSURE VOLUME PRESSAVG GPRESSAVG
ENERGY: 900000 0.0000 0.0000 0.0000 0.0000 -11499.9709 1730.3649 0.0000 0.0000 1643.2792 -8126.3268 280.1273 -9769.6060 -8124.3825 280.1273 1306.4739 1373.9280 29566.8121 1306.4739 1373.9280
ENERGY: 1100000 0.0000 0.0000 0.0000 0.0000 -10708.2471 1425.0642 0.0000 0.0000 1791.3362 -7491.8467 305.3663 -9283.1829 -7487.2542 300.4758 -117.0287 -3.1253 30831.8694 2.7239 3.0380
ENERGY: 1300000 0.0000 0.0000 0.0000 0.0000 -10735.6618 1354.4595 0.0000 0.0000 1816.3663 -7564.8360 309.6332 -9381.2023 -7561.5148 300.7026 -505.3731 -444.0158 30081.7236 2.0716 1.9168
ENERGY: 1500000 0.0000 0.0000 0.0000 0.0000 -10710.8252 1422.9956 0.0000 0.0000 1799.5384 -7488.2911 306.7645 -9287.8295 -7485.1619 299.4149 -55.8244 47.5084 30635.5539 2.3070 2.3401
ENERGY: 1700000 0.0000 0.0000 0.0000 0.0000 -10689.3177 1421.8597 0.0000 0.0000 1703.6587 -7563.7994 290.4201 -9267.4581 -7561.8085 300.3736 -304.3695 -201.7201 30980.7311 4.7287 4.6904
ENERGY: 1900000 0.0000 0.0000 0.0000 0.0000 -10840.3402 1528.8517 0.0000 0.0000 1728.8775 -7582.6110 294.7191 -9311.4885 -7579.8494 300.1634 385.6917 490.5779 30967.5226 3.6583 3.5190
TCL: Exiting due to exit command.
