Info: SIMULATION PARAMETERS:
Info: TIMESTEP               2
Info: NUMBER OF STEPS        0
Info: STEPS PER CYCLE        10
Info: PERIODIC CELL BASIS 1  37.968 0 0
Info: PERIODIC CELL BASIS 2  0 35.779 0
Info: PERIODIC CELL BASIS 3  0 0 31.855
Info: PERIODIC CELL CENTER   0 0 0
Info: WRAPPING WATERS AROUND PERIODIC BOUNDARIES ON OUTPUT.
Info: WRAPPING ALL CLUSTERS AROUND PERIODIC BOUNDARIES ON OUTPUT.
Info: FIRST LDB TIMESTEP     50
Info: LAST LDB TIMESTEP     -1
Info: HOM BACKGROUND SCALING 1
Info: PME BACKGROUND SCALING 1
Info: MIN ATOMS PER PATCH    40
Info: EMPTY PATCH LOAD       40 ATOMS
Info: INITIAL TEMPERATURE    300
Info: CENTER OF MASS MOVING INITIALLY? NO
Info: DIELECTRIC             1
Info: EXCLUDE                SCALED ONE-FOUR
Info: 1-4 ELECTROSTATICS SCALED BY 0.833333
Info: MODIFIED 1-4 VDW PARAMETERS WILL BE USED
Info: DCD FILENAME           mobley_7066554_equil.dcd
Info: DCD FREQUENCY          100000
Info: DCD FIRST STEP         100000
Info: DCD FILE WILL CONTAIN UNIT CELL DATA
Info: XST FILENAME           mobley_7066554_equil.xst
Info: XST FREQUENCY          100000
Info: NO VELOCITY DCD OUTPUT
Info: NO FORCE DCD OUTPUT
Info: OUTPUT FILENAME        mobley_7066554_equil
Info: BINARY OUTPUT FILES WILL BE USED
Info: RESTART FILENAME       mobley_7066554_equil.restart
Info: RESTART FREQUENCY      100000
Info: BINARY RESTART FILES WILL BE USED
Info: CUTOFF                 9
Info: PAIRLIST DISTANCE      11
Info: PAIRLIST SHRINK RATE   0.01
Info: PAIRLIST GROW RATE     0.01
Info: PAIRLIST TRIGGER       0.3
Info: PAIRLISTS PER CYCLE    2
Info: PAIRLISTS ENABLED
Info: MARGIN                 8
Info: HYDROGEN GROUP CUTOFF  2.5
Info: PATCH DIMENSION        21.5
Info: ENERGY OUTPUT STEPS    100000
Info: ENERGY EVALUATION STEPS    100000
Info: OUTPUT ENERGY PRECISION 4
Info: CROSSTERM ENERGY INCLUDED IN DIHEDRAL
Info: TIMING OUTPUT STEPS    1000000
Info: PRESSURE OUTPUT STEPS  100000
Info: FIXED ATOMS ACTIVE
Info: LANGEVIN DYNAMICS ACTIVE
Info: LANGEVIN TEMPERATURE   30
Info: LANGEVIN USING BBK INTEGRATOR
Info: LANGEVIN DAMPING COEFFICIENT IS 1 INVERSE PS
Info: LANGEVIN DYNAMICS APPLIED TO HYDROGENS
Info: LANGEVIN PISTON PRESSURE CONTROL ACTIVE
Info:        TARGET PRESSURE IS 1.01325 BAR
Info:     OSCILLATION PERIOD IS 50 FS
Info:             DECAY TIME IS 25 FS
Info:     PISTON TEMPERATURE IS 300 K
Info:       PRESSURE CONTROL IS GROUP-BASED
Info:    INITIAL STRAIN RATE IS 0 0 0
Info:       CELL FLUCTUATION IS ISOTROPIC
Info: PARTICLE MESH EWALD (PME) ACTIVE
Info: PME TOLERANCE               1e-06
Info: PME EWALD COEFFICIENT       0.348832
Info: PME INTERPOLATION ORDER     4
Info: PME GRID DIMENSIONS         40 36 32
Info: PME MAXIMUM GRID SPACING    1
Info: FULL ELECTROSTATIC EVALUATION FREQUENCY      2
Info: USING VERLET I (r-RESPA) MTS SCHEME.
Info: C1 SPLITTING OF LONG RANGE ELECTROSTATICS
Info: PLACING ATOMS IN PATCHES BY HYDROGEN GROUPS
Info: RIGID BONDS TO HYDROGEN : ALL
Info:         ERROR TOLERANCE : 1e-08
Info:          MAX ITERATIONS : 100
Info: RIGID WATER USING SETTLE ALGORITHM
Info: RANDOM NUMBER SEED     1743729228
Info: USE HYDROGEN BONDS?    NO
Info: Using AMBER format force field!
Info: AMBER PARM FILE        mobley_7066554.prmtop
Info: COORDINATE PDB         mobley_7066554.pdb
Info: Exclusions will be read from PARM file!
Info: SCNB (VDW SCALING)     2
Info: USING ARITHMETIC MEAN TO COMBINE L-J SIGMA PARAMETERS
Info: BINARY COORDINATES     mobley_7066554_min.coor
Info: SUMMARY OF PARAMETERS:
Info: 7 BONDS
Info: 5 ANGLES
Info:   5 HARMONIC
Info:   0 COSINE-BASED
Info: 3 DIHEDRAL
Info: 0 IMPROPER
Info: 0 CROSSTERM
Info: 0 VDW
Info: 21 VDW_PAIRS
Info: 0 NBTHOLE_PAIRS
Info: STRUCTURE SUMMARY:
Info: 2977 ATOMS
Info: 2977 BONDS
Info: 19 ANGLES
Info: 32 DIHEDRALS
Info: 0 IMPROPERS
Info: 0 CROSSTERMS
Info: 3019 EXCLUSIONS
Info: 13 FIXED ATOMS
Info: 2969 RIGID BONDS
Info: 5 RIGID BONDS BETWEEN FIXED ATOMS
Info: 5928 DEGREES OF FREEDOM
Info: 996 HYDROGEN GROUPS
Info: 3 ATOMS IN LARGEST HYDROGEN GROUP
Info: 996 MIGRATION GROUPS
Info: 3 ATOMS IN LARGEST MIGRATION GROUP
Info: 8 HYDROGEN GROUPS WITH ALL ATOMS FIXED
Info: TOTAL MASS = 17928.4 amu
Info: TOTAL CHARGE = -0.000200016 e
Info: MASS DENSITY = 0.687981 g/cm^3
Info: ATOM DENSITY = 0.0687948 atoms/A^3
Info: ADDED 0 IMPLICIT EXCLUSIONS
Info: NONBONDED TABLE R-SQUARED SPACING: 0.0625
Info: NONBONDED TABLE SIZE: 705 POINTS
Info: REMOVING COM VELOCITY -0.134204 -0.0300597 -0.0134141
TCL: Running for 100000 steps
ETITLE: TS BOND ANGLE DIHED IMPRP ELECT VDW BOUNDARY MISC KINETIC TOTAL TEMP POTENTIAL TOTAL3 TEMPAVG PRESSURE GPRESSURE VOLUME PRESSAVG GPRESSAVG
ENERGY: 0 0.0000 0.0000 0.0000 0.0000 -13855.9621 2395.7775 0.0000 0.0000 1785.5907 -9674.5938 303.1546 -11460.1846 -9674.2449 303.1546 241.1348 278.8957 43273.6500 241.1348 278.8957
ENERGY: 100000 0.0000 0.0000 0.0000 0.0000 -14433.1376 2532.1303 0.0000 0.0000 181.5884 -11719.4189 30.8298 -11901.0073 -11719.0883 30.8820 268.9073 353.8238 28762.6321 5.4189 5.4626
TCL: Running 100000 steps at 60 kelvin.
TCL: Setting parameter langevinTemp to 60
TCL: Running for 100000 steps
ETITLE: TS BOND ANGLE DIHED IMPRP ELECT VDW BOUNDARY MISC KINETIC TOTAL TEMP POTENTIAL TOTAL3 TEMPAVG PRESSURE GPRESSURE VOLUME PRESSAVG GPRESSAVG
ENERGY: 100000 0.0000 0.0000 0.0000 0.0000 -14433.1376 2532.1303 0.0000 0.0000 181.5028 -11719.5045 30.8152 -11901.0073 -11719.1433 30.8152 291.5393 353.7702 28762.6321 291.5393 353.7702
ENERGY: 200000 0.0000 0.0000 0.0000 0.0000 -14225.1596 2406.0352 0.0000 0.0000 358.2980 -11460.8264 60.8312 -11819.1244 -11459.8990 60.0437 -359.3796 -310.5750 28737.7657 4.5229 4.5862
TCL: Running 100000 steps at 90 kelvin.
TCL: Setting parameter langevinTemp to 90
TCL: Running for 100000 steps
ETITLE: TS BOND ANGLE DIHED IMPRP ELECT VDW BOUNDARY MISC KINETIC TOTAL TEMP POTENTIAL TOTAL3 TEMPAVG PRESSURE GPRESSURE VOLUME PRESSAVG GPRESSAVG
ENERGY: 200000 0.0000 0.0000 0.0000 0.0000 -14225.1596 2406.0352 0.0000 0.0000 358.1259 -11460.9985 60.8020 -11819.1244 -11460.3638 60.8020 -344.7916 -310.6182 28737.7657 -344.7916 -310.6182
ENERGY: 300000 0.0000 0.0000 0.0000 0.0000 -13966.7296 2257.0771 0.0000 0.0000 535.0106 -11174.6419 90.8332 -11709.6525 -11172.9098 89.6568 -1146.4745 -1084.3892 29000.0761 3.7735 3.7435
TCL: Running 100000 steps at 120 kelvin.
TCL: Setting parameter langevinTemp to 120
TCL: Running for 100000 steps
ETITLE: TS BOND ANGLE DIHED IMPRP ELECT VDW BOUNDARY MISC KINETIC TOTAL TEMP POTENTIAL TOTAL3 TEMPAVG PRESSURE GPRESSURE VOLUME PRESSAVG GPRESSAVG
ENERGY: 300000 0.0000 0.0000 0.0000 0.0000 -13966.7296 2257.0771 0.0000 0.0000 534.7342 -11174.9184 90.7863 -11709.6525 -11173.7922 90.7863 -1130.5895 -1083.9557 29000.0761 -1130.5895 -1083.9557
ENERGY: 400000 0.0000 0.0000 0.0000 0.0000 -13892.6993 2287.6539 0.0000 0.0000 705.2733 -10899.7721 119.7401 -11605.0454 -10897.7592 119.9620 -689.4273 -622.6348 29120.6795 3.6308 3.7223
TCL: Running 100000 steps at 150 kelvin.
TCL: Setting parameter langevinTemp to 150
TCL: Running for 100000 steps
ETITLE: TS BOND ANGLE DIHED IMPRP ELECT VDW BOUNDARY MISC KINETIC TOTAL TEMP POTENTIAL TOTAL3 TEMPAVG PRESSURE GPRESSURE VOLUME PRESSAVG GPRESSAVG
ENERGY: 400000 0.0000 0.0000 0.0000 0.0000 -13892.6993 2287.6539 0.0000 0.0000 704.9173 -10900.1282 119.6797 -11605.0454 -10898.6995 119.6797 -664.7271 -623.1773 29120.6795 -664.7271 -623.1773
ENERGY: 500000 0.0000 0.0000 0.0000 0.0000 -13717.6946 2246.0520 0.0000 0.0000 879.3975 -10592.2451 149.3026 -11471.6426 -10589.5371 150.0833 -648.1960 -604.6121 29472.4061 3.7900 3.7657
TCL: Running 100000 steps at 180 kelvin.
TCL: Setting parameter langevinTemp to 180
TCL: Running for 100000 steps
ETITLE: TS BOND ANGLE DIHED IMPRP ELECT VDW BOUNDARY MISC KINETIC TOTAL TEMP POTENTIAL TOTAL3 TEMPAVG PRESSURE GPRESSURE VOLUME PRESSAVG GPRESSAVG
ENERGY: 500000 0.0000 0.0000 0.0000 0.0000 -13717.6946 2246.0520 0.0000 0.0000 878.9493 -10592.6933 149.2265 -11471.6426 -10590.8044 149.2265 -654.5737 -604.5639 29472.4061 -654.5737 -604.5639
ENERGY: 600000 0.0000 0.0000 0.0000 0.0000 -13161.7922 2078.9020 0.0000 0.0000 1062.0816 -10020.8085 180.3184 -11082.8902 -10019.3247 180.0613 -469.4523 -441.9048 29423.4298 4.6380 4.6014
TCL: Running 100000 steps at 210 kelvin.
TCL: Setting parameter langevinTemp to 210
TCL: Running for 100000 steps
ETITLE: TS BOND ANGLE DIHED IMPRP ELECT VDW BOUNDARY MISC KINETIC TOTAL TEMP POTENTIAL TOTAL3 TEMPAVG PRESSURE GPRESSURE VOLUME PRESSAVG GPRESSAVG
ENERGY: 600000 0.0000 0.0000 0.0000 0.0000 -13161.7922 2078.9020 0.0000 0.0000 1061.5406 -10021.3495 180.2266 -11082.8902 -10019.2989 180.2266 -498.9555 -442.6998 29423.4298 -498.9555 -442.6998
ENERGY: 700000 0.0000 0.0000 0.0000 0.0000 -12433.4255 1821.4152 0.0000 0.0000 1253.3881 -9358.6222 212.7981 -10612.0103 -9356.6574 210.1845 -629.1176 -539.1729 29028.4810 3.6023 3.7300
TCL: Running 100000 steps at 240 kelvin.
TCL: Setting parameter langevinTemp to 240
TCL: Running for 100000 steps
ETITLE: TS BOND ANGLE DIHED IMPRP ELECT VDW BOUNDARY MISC KINETIC TOTAL TEMP POTENTIAL TOTAL3 TEMPAVG PRESSURE GPRESSURE VOLUME PRESSAVG GPRESSAVG
ENERGY: 700000 0.0000 0.0000 0.0000 0.0000 -12433.4255 1821.4152 0.0000 0.0000 1252.7892 -9359.2211 212.6964 -10612.0103 -9357.0242 212.6964 -606.6810 -540.2096 29028.4810 -606.6810 -540.2096
ENERGY: 800000 0.0000 0.0000 0.0000 0.0000 -11885.0831 1727.0131 0.0000 0.0000 1471.6248 -8686.4452 249.8500 -10158.0700 -8683.2650 240.1713 -1.8568 116.1154 29670.5291 4.1177 4.1299
TCL: Running 100000 steps at 270 kelvin.
TCL: Setting parameter langevinTemp to 270
TCL: Running for 100000 steps
ETITLE: TS BOND ANGLE DIHED IMPRP ELECT VDW BOUNDARY MISC KINETIC TOTAL TEMP POTENTIAL TOTAL3 TEMPAVG PRESSURE GPRESSURE VOLUME PRESSAVG GPRESSAVG
ENERGY: 800000 0.0000 0.0000 0.0000 0.0000 -11885.0831 1727.0131 0.0000 0.0000 1470.9162 -8687.1538 249.7297 -10158.0700 -8684.8331 249.7297 31.9173 117.1387 29670.5291 31.9173 117.1387
ENERGY: 900000 0.0000 0.0000 0.0000 0.0000 -11421.0164 1634.7812 0.0000 0.0000 1595.8688 -8190.3665 270.9439 -9786.2353 -8184.9249 270.1843 386.0285 498.4435 29923.9950 4.5283 4.4563
TCL: Running 1000000 steps at 300 kelvin.
TCL: Setting parameter langevinTemp to 300
TCL: Running for 1000000 steps
ETITLE: TS BOND ANGLE DIHED IMPRP ELECT VDW BOUNDARY MISC KINETIC TOTAL TEMP POTENTIAL TOTAL3 TEMPAVG PRESSURE GPRESSURE VOLUME PRESSAVG GPRESSAVG
ENERGY: 900000 0.0000 0.0000 0.0000 0.0000 -11421.0164 1634.7812 0.0000 0.0000 1595.0920 -8191.1433 270.8120 -9786.2353 -8188.6868 270.8120 425.3378 500.4217 29923.9950 425.3378 500.4217
ENERGY: 1100000 0.0000 0.0000 0.0000 0.0000 -10660.5475 1338.6788 0.0000 0.0000 1768.4280 -7553.4407 300.2407 -9321.8687 -7549.3216 299.2350 -914.1968 -764.7718 31005.6420 3.1420 3.1341
ENERGY: 1300000 0.0000 0.0000 0.0000 0.0000 -10835.5524 1444.7577 0.0000 0.0000 1718.6751 -7672.1196 291.7937 -9390.7947 -7670.2820 299.6138 -263.5861 -198.0256 31113.7666 3.8679 3.8513
ENERGY: 1500000 0.0000 0.0000 0.0000 0.0000 -10770.7197 1391.5274 0.0000 0.0000 1815.5962 -7563.5961 308.2488 -9379.1922 -7561.7573 300.4160 -383.9843 -333.4997 30795.9896 4.1619 3.8587
ENERGY: 1700000 0.0000 0.0000 0.0000 0.0000 -10792.7693 1427.8824 0.0000 0.0000 1729.4802 -7635.4067 293.6282 -9364.8869 -7631.0335 300.3790 -81.2188 23.4374 30498.3939 2.2401 2.2583
ENERGY: 1900000 0.0000 0.0000 0.0000 0.0000 -10938.0903 1435.4161 0.0000 0.0000 1772.5717 -7730.1024 300.9442 -9502.6742 -7727.5114 299.6856 -488.8883 -386.7284 30793.3780 3.1142 3.1681
TCL: Exiting due to exit command.
