Info: SIMULATION PARAMETERS:
Info: TIMESTEP               2
Info: NUMBER OF STEPS        0
Info: STEPS PER CYCLE        10
Info: PERIODIC CELL BASIS 1  37.435 0 0
Info: PERIODIC CELL BASIS 2  0 34.26 0
Info: PERIODIC CELL BASIS 3  0 0 34.229
Info: PERIODIC CELL CENTER   0 0 0
Info: WRAPPING WATERS AROUND PERIODIC BOUNDARIES ON OUTPUT.
Info: WRAPPING ALL CLUSTERS AROUND PERIODIC BOUNDARIES ON OUTPUT.
Info: FIRST LDB TIMESTEP     50
Info: LAST LDB TIMESTEP     -1
Info: HOM BACKGROUND SCALING 1
Info: PME BACKGROUND SCALING 1
Info: MIN ATOMS PER PATCH    40
Info: EMPTY PATCH LOAD       40 ATOMS
Info: INITIAL TEMPERATURE    300
Info: CENTER OF MASS MOVING INITIALLY? NO
Info: DIELECTRIC             1
Info: EXCLUDE                SCALED ONE-FOUR
Info: 1-4 ELECTROSTATICS SCALED BY 0.833333
Info: MODIFIED 1-4 VDW PARAMETERS WILL BE USED
Info: DCD FILENAME           mobley_1075836_equil.dcd
Info: DCD FREQUENCY          100000
Info: DCD FIRST STEP         100000
Info: DCD FILE WILL CONTAIN UNIT CELL DATA
Info: XST FILENAME           mobley_1075836_equil.xst
Info: XST FREQUENCY          100000
Info: NO VELOCITY DCD OUTPUT
Info: NO FORCE DCD OUTPUT
Info: OUTPUT FILENAME        mobley_1075836_equil
Info: BINARY OUTPUT FILES WILL BE USED
Info: RESTART FILENAME       mobley_1075836_equil.restart
Info: RESTART FREQUENCY      100000
Info: BINARY RESTART FILES WILL BE USED
Info: CUTOFF                 9
Info: PAIRLIST DISTANCE      11
Info: PAIRLIST SHRINK RATE   0.01
Info: PAIRLIST GROW RATE     0.01
Info: PAIRLIST TRIGGER       0.3
Info: PAIRLISTS PER CYCLE    2
Info: PAIRLISTS ENABLED
Info: MARGIN                 8
Info: HYDROGEN GROUP CUTOFF  2.5
Info: PATCH DIMENSION        21.5
Info: ENERGY OUTPUT STEPS    100000
Info: ENERGY EVALUATION STEPS    100000
Info: OUTPUT ENERGY PRECISION 4
Info: CROSSTERM ENERGY INCLUDED IN DIHEDRAL
Info: TIMING OUTPUT STEPS    1000000
Info: PRESSURE OUTPUT STEPS  100000
Info: FIXED ATOMS ACTIVE
Info: LANGEVIN DYNAMICS ACTIVE
Info: LANGEVIN TEMPERATURE   30
Info: LANGEVIN USING BBK INTEGRATOR
Info: LANGEVIN DAMPING COEFFICIENT IS 1 INVERSE PS
Info: LANGEVIN DYNAMICS APPLIED TO HYDROGENS
Info: LANGEVIN PISTON PRESSURE CONTROL ACTIVE
Info:        TARGET PRESSURE IS 1.01325 BAR
Info:     OSCILLATION PERIOD IS 50 FS
Info:             DECAY TIME IS 25 FS
Info:     PISTON TEMPERATURE IS 300 K
Info:       PRESSURE CONTROL IS GROUP-BASED
Info:    INITIAL STRAIN RATE IS 0 0 0
Info:       CELL FLUCTUATION IS ISOTROPIC
Info: PARTICLE MESH EWALD (PME) ACTIVE
Info: PME TOLERANCE               1e-06
Info: PME EWALD COEFFICIENT       0.348832
Info: PME INTERPOLATION ORDER     4
Info: PME GRID DIMENSIONS         40 36 36
Info: PME MAXIMUM GRID SPACING    1
Info: FULL ELECTROSTATIC EVALUATION FREQUENCY      2
Info: USING VERLET I (r-RESPA) MTS SCHEME.
Info: C1 SPLITTING OF LONG RANGE ELECTROSTATICS
Info: PLACING ATOMS IN PATCHES BY HYDROGEN GROUPS
Info: RIGID BONDS TO HYDROGEN : ALL
Info:         ERROR TOLERANCE : 1e-08
Info:          MAX ITERATIONS : 100
Info: RIGID WATER USING SETTLE ALGORITHM
Info: RANDOM NUMBER SEED     1743901086
Info: USE HYDROGEN BONDS?    NO
Info: Using AMBER format force field!
Info: AMBER PARM FILE        mobley_1075836.prmtop
Info: COORDINATE PDB         mobley_1075836.pdb
Info: Exclusions will be read from PARM file!
Info: SCNB (VDW SCALING)     2
Info: USING ARITHMETIC MEAN TO COMBINE L-J SIGMA PARAMETERS
Info: BINARY COORDINATES     mobley_1075836_min.coor
Info: SUMMARY OF PARAMETERS:
Info: 9 BONDS
Info: 10 ANGLES
Info:   10 HARMONIC
Info:   0 COSINE-BASED
Info: 12 DIHEDRAL
Info: 0 IMPROPER
Info: 0 CROSSTERM
Info: 0 VDW
Info: 36 VDW_PAIRS
Info: 0 NBTHOLE_PAIRS
Info: STRUCTURE SUMMARY:
Info: 2990 ATOMS
Info: 2989 BONDS
Info: 22 ANGLES
Info: 28 DIHEDRALS
Info: 0 IMPROPERS
Info: 0 CROSSTERMS
Info: 3031 EXCLUSIONS
Info: 14 FIXED ATOMS
Info: 2984 RIGID BONDS
Info: 8 RIGID BONDS BETWEEN FIXED ATOMS
Info: 5952 DEGREES OF FREEDOM
Info: 998 HYDROGEN GROUPS
Info: 4 ATOMS IN LARGEST HYDROGEN GROUP
Info: 998 MIGRATION GROUPS
Info: 4 ATOMS IN LARGEST MIGRATION GROUP
Info: 6 HYDROGEN GROUPS WITH ALL ATOMS FIXED
Info: TOTAL MASS = 17960 amu
Info: TOTAL CHARGE = -0.000100046 e
Info: MASS DENSITY = 0.679369 g/cm^3
Info: ATOM DENSITY = 0.0681101 atoms/A^3
Info: ADDED 0 IMPLICIT EXCLUSIONS
Info: NONBONDED TABLE R-SQUARED SPACING: 0.0625
Info: NONBONDED TABLE SIZE: 705 POINTS
Info: REMOVING COM VELOCITY 0.11116 0.0249908 -0.0980581
TCL: Running for 100000 steps
ETITLE: TS BOND ANGLE DIHED IMPRP ELECT VDW BOUNDARY MISC KINETIC TOTAL TEMP POTENTIAL TOTAL3 TEMPAVG PRESSURE GPRESSURE VOLUME PRESSAVG GPRESSAVG
ENERGY: 0 0.0000 0.0000 0.0000 0.0000 -13810.4283 2388.0319 0.0000 0.0000 1778.2437 -9644.1526 300.6898 -11422.3963 -9643.8177 300.6898 244.8156 280.8607 43899.4832 244.8156 280.8607
ENERGY: 100000 0.0000 0.0000 0.0000 0.0000 -14337.6776 2360.5901 0.0000 0.0000 179.9581 -11797.1294 30.4298 -11977.0875 -11796.6490 30.8895 -1262.1319 -1194.9906 29532.4752 4.3408 4.3415
TCL: Running 100000 steps at 60 kelvin.
TCL: Setting parameter langevinTemp to 60
TCL: Running for 100000 steps
ETITLE: TS BOND ANGLE DIHED IMPRP ELECT VDW BOUNDARY MISC KINETIC TOTAL TEMP POTENTIAL TOTAL3 TEMPAVG PRESSURE GPRESSURE VOLUME PRESSAVG GPRESSAVG
ENERGY: 100000 0.0000 0.0000 0.0000 0.0000 -14337.6776 2360.5901 0.0000 0.0000 179.8694 -11797.2181 30.4148 -11977.0875 -11796.7519 30.4148 -1243.8002 -1195.1137 29532.4752 -1243.8002 -1195.1137
ENERGY: 200000 0.0000 0.0000 0.0000 0.0000 -14376.4440 2491.7193 0.0000 0.0000 344.0379 -11540.6867 58.1747 -11884.7247 -11539.8167 59.7416 267.1326 332.2885 29073.1709 4.9802 4.8960
TCL: Running 100000 steps at 90 kelvin.
TCL: Setting parameter langevinTemp to 90
TCL: Running for 100000 steps
ETITLE: TS BOND ANGLE DIHED IMPRP ELECT VDW BOUNDARY MISC KINETIC TOTAL TEMP POTENTIAL TOTAL3 TEMPAVG PRESSURE GPRESSURE VOLUME PRESSAVG GPRESSAVG
ENERGY: 200000 0.0000 0.0000 0.0000 0.0000 -14376.4440 2491.7193 0.0000 0.0000 343.8694 -11540.8553 58.1462 -11884.7247 -11540.0565 58.1462 270.8120 331.9976 29073.1709 270.8120 331.9976
ENERGY: 300000 0.0000 0.0000 0.0000 0.0000 -14156.1753 2401.8384 0.0000 0.0000 523.7709 -11230.5660 88.5664 -11754.3369 -11228.9190 90.1323 -86.4802 -33.6509 29170.8805 4.2155 4.3334
TCL: Running 100000 steps at 120 kelvin.
TCL: Setting parameter langevinTemp to 120
TCL: Running for 100000 steps
ETITLE: TS BOND ANGLE DIHED IMPRP ELECT VDW BOUNDARY MISC KINETIC TOTAL TEMP POTENTIAL TOTAL3 TEMPAVG PRESSURE GPRESSURE VOLUME PRESSAVG GPRESSAVG
ENERGY: 300000 0.0000 0.0000 0.0000 0.0000 -14156.1753 2401.8384 0.0000 0.0000 523.4969 -11230.8400 88.5200 -11754.3369 -11229.8207 88.5200 -83.6272 -32.9495 29170.8805 -83.6272 -32.9495
ENERGY: 400000 0.0000 0.0000 0.0000 0.0000 -14011.1906 2320.9937 0.0000 0.0000 709.7466 -10980.4503 120.0137 -11690.1969 -10978.7592 120.0114 -381.0965 -301.9419 29124.9340 4.0286 4.1804
TCL: Running 100000 steps at 150 kelvin.
TCL: Setting parameter langevinTemp to 150
TCL: Running for 100000 steps
ETITLE: TS BOND ANGLE DIHED IMPRP ELECT VDW BOUNDARY MISC KINETIC TOTAL TEMP POTENTIAL TOTAL3 TEMPAVG PRESSURE GPRESSURE VOLUME PRESSAVG GPRESSAVG
ENERGY: 400000 0.0000 0.0000 0.0000 0.0000 -14011.1906 2320.9937 0.0000 0.0000 709.3887 -10980.8081 119.9532 -11690.1969 -10979.1624 119.9532 -351.5529 -302.0455 29124.9340 -351.5529 -302.0455
ENERGY: 500000 0.0000 0.0000 0.0000 0.0000 -13589.5222 2097.0784 0.0000 0.0000 897.0255 -10595.4184 151.6814 -11492.4438 -10592.5818 150.0425 -1604.6566 -1521.1236 29557.3405 4.6024 4.6432
TCL: Running 100000 steps at 180 kelvin.
TCL: Setting parameter langevinTemp to 180
TCL: Running for 100000 steps
ETITLE: TS BOND ANGLE DIHED IMPRP ELECT VDW BOUNDARY MISC KINETIC TOTAL TEMP POTENTIAL TOTAL3 TEMPAVG PRESSURE GPRESSURE VOLUME PRESSAVG GPRESSAVG
ENERGY: 500000 0.0000 0.0000 0.0000 0.0000 -13589.5222 2097.0784 0.0000 0.0000 896.5968 -10595.8470 151.6089 -11492.4438 -10593.6869 151.6089 -1578.0535 -1520.3873 29557.3405 -1578.0535 -1520.3873
ENERGY: 600000 0.0000 0.0000 0.0000 0.0000 -13373.3343 2171.9153 0.0000 0.0000 1105.3960 -10096.0230 186.9155 -11201.4190 -10094.1718 179.5169 283.6873 328.1294 29190.0165 3.7988 3.6528
TCL: Running 100000 steps at 210 kelvin.
TCL: Setting parameter langevinTemp to 210
TCL: Running for 100000 steps
ETITLE: TS BOND ANGLE DIHED IMPRP ELECT VDW BOUNDARY MISC KINETIC TOTAL TEMP POTENTIAL TOTAL3 TEMPAVG PRESSURE GPRESSURE VOLUME PRESSAVG GPRESSAVG
ENERGY: 600000 0.0000 0.0000 0.0000 0.0000 -13373.3343 2171.9153 0.0000 0.0000 1104.8407 -10096.5784 186.8216 -11201.4190 -10094.9953 186.8216 269.5749 327.8208 29190.0165 269.5749 327.8208
ENERGY: 700000 0.0000 0.0000 0.0000 0.0000 -12731.5135 2033.7245 0.0000 0.0000 1230.4541 -9467.3350 208.0621 -10697.7891 -9465.0091 210.1487 1104.0949 1142.7902 28891.3805 3.3489 3.3278
TCL: Running 100000 steps at 240 kelvin.
TCL: Setting parameter langevinTemp to 240
TCL: Running for 100000 steps
ETITLE: TS BOND ANGLE DIHED IMPRP ELECT VDW BOUNDARY MISC KINETIC TOTAL TEMP POTENTIAL TOTAL3 TEMPAVG PRESSURE GPRESSURE VOLUME PRESSAVG GPRESSAVG
ENERGY: 700000 0.0000 0.0000 0.0000 0.0000 -12731.5135 2033.7245 0.0000 0.0000 1229.8250 -9467.9640 207.9557 -10697.7891 -9465.9375 207.9557 1056.6025 1141.4703 28891.3805 1056.6025 1141.4703
ENERGY: 800000 0.0000 0.0000 0.0000 0.0000 -12026.7273 1725.8910 0.0000 0.0000 1426.2432 -8874.5930 241.1688 -10300.8362 -8870.2373 239.9476 -123.9685 -82.6977 29393.9886 3.0837 3.2092
TCL: Running 100000 steps at 270 kelvin.
TCL: Setting parameter langevinTemp to 270
TCL: Running for 100000 steps
ETITLE: TS BOND ANGLE DIHED IMPRP ELECT VDW BOUNDARY MISC KINETIC TOTAL TEMP POTENTIAL TOTAL3 TEMPAVG PRESSURE GPRESSURE VOLUME PRESSAVG GPRESSAVG
ENERGY: 800000 0.0000 0.0000 0.0000 0.0000 -12026.7273 1725.8910 0.0000 0.0000 1425.5219 -8875.3143 241.0468 -10300.8362 -8873.0202 241.0468 -155.1079 -82.1333 29393.9886 -155.1079 -82.1333
ENERGY: 900000 0.0000 0.0000 0.0000 0.0000 -11513.6214 1626.3068 0.0000 0.0000 1542.9098 -8344.4048 260.8963 -9887.3146 -8341.2600 270.2165 313.0041 348.2968 29705.7749 3.9202 3.7416
TCL: Running 1000000 steps at 300 kelvin.
TCL: Setting parameter langevinTemp to 300
TCL: Running for 1000000 steps
ETITLE: TS BOND ANGLE DIHED IMPRP ELECT VDW BOUNDARY MISC KINETIC TOTAL TEMP POTENTIAL TOTAL3 TEMPAVG PRESSURE GPRESSURE VOLUME PRESSAVG GPRESSAVG
ENERGY: 900000 0.0000 0.0000 0.0000 0.0000 -11513.6214 1626.3068 0.0000 0.0000 1542.0780 -8345.2366 260.7557 -9887.3146 -8343.1554 260.7557 260.0483 348.9054 29705.7749 260.0483 348.9054
ENERGY: 1100000 0.0000 0.0000 0.0000 0.0000 -10926.4291 1473.3550 0.0000 0.0000 1785.8417 -7667.2324 301.9746 -9453.0741 -7665.7756 300.4446 127.0423 213.4665 30698.6257 2.1807 2.2020
ENERGY: 1300000 0.0000 0.0000 0.0000 0.0000 -10835.3249 1380.6479 0.0000 0.0000 1817.3364 -7637.3406 307.3002 -9454.6770 -7632.2827 299.1437 -713.3217 -612.3023 30909.7282 2.1190 1.9217
ENERGY: 1500000 0.0000 0.0000 0.0000 0.0000 -10917.9329 1474.7966 0.0000 0.0000 1756.2223 -7686.9141 296.9661 -9443.1363 -7682.9462 300.2060 230.8512 330.2691 30577.1044 3.2947 3.2381
ENERGY: 1700000 0.0000 0.0000 0.0000 0.0000 -10999.4260 1517.8935 0.0000 0.0000 1764.4139 -7717.1187 298.3513 -9481.5326 -7713.5060 300.4449 257.5305 385.8491 30746.3470 3.9283 3.8134
ENERGY: 1900000 0.0000 0.0000 0.0000 0.0000 -11031.6131 1554.3556 0.0000 0.0000 1808.7983 -7668.4592 305.8564 -9477.2575 -7665.9213 300.0058 887.2577 941.0323 30537.1548 3.3647 3.4353
TCL: Exiting due to exit command.
