Info: SIMULATION PARAMETERS:
Info: TIMESTEP               2
Info: NUMBER OF STEPS        0
Info: STEPS PER CYCLE        10
Info: PERIODIC CELL BASIS 1  36.592 0 0
Info: PERIODIC CELL BASIS 2  0 34.26 0
Info: PERIODIC CELL BASIS 3  0 0 34.471
Info: PERIODIC CELL CENTER   0 0 0
Info: WRAPPING WATERS AROUND PERIODIC BOUNDARIES ON OUTPUT.
Info: WRAPPING ALL CLUSTERS AROUND PERIODIC BOUNDARIES ON OUTPUT.
Info: FIRST LDB TIMESTEP     50
Info: LAST LDB TIMESTEP     -1
Info: HOM BACKGROUND SCALING 1
Info: PME BACKGROUND SCALING 1
Info: MIN ATOMS PER PATCH    40
Info: EMPTY PATCH LOAD       40 ATOMS
Info: INITIAL TEMPERATURE    300
Info: CENTER OF MASS MOVING INITIALLY? NO
Info: DIELECTRIC             1
Info: EXCLUDE                SCALED ONE-FOUR
Info: 1-4 ELECTROSTATICS SCALED BY 0.833333
Info: MODIFIED 1-4 VDW PARAMETERS WILL BE USED
Info: DCD FILENAME           mobley_2198613_equil.dcd
Info: DCD FREQUENCY          100000
Info: DCD FIRST STEP         100000
Info: DCD FILE WILL CONTAIN UNIT CELL DATA
Info: XST FILENAME           mobley_2198613_equil.xst
Info: XST FREQUENCY          100000
Info: NO VELOCITY DCD OUTPUT
Info: NO FORCE DCD OUTPUT
Info: OUTPUT FILENAME        mobley_2198613_equil
Info: BINARY OUTPUT FILES WILL BE USED
Info: RESTART FILENAME       mobley_2198613_equil.restart
Info: RESTART FREQUENCY      100000
Info: BINARY RESTART FILES WILL BE USED
Info: CUTOFF                 9
Info: PAIRLIST DISTANCE      11
Info: PAIRLIST SHRINK RATE   0.01
Info: PAIRLIST GROW RATE     0.01
Info: PAIRLIST TRIGGER       0.3
Info: PAIRLISTS PER CYCLE    2
Info: PAIRLISTS ENABLED
Info: MARGIN                 8
Info: HYDROGEN GROUP CUTOFF  2.5
Info: PATCH DIMENSION        21.5
Info: ENERGY OUTPUT STEPS    100000
Info: ENERGY EVALUATION STEPS    100000
Info: OUTPUT ENERGY PRECISION 4
Info: CROSSTERM ENERGY INCLUDED IN DIHEDRAL
Info: TIMING OUTPUT STEPS    1000000
Info: PRESSURE OUTPUT STEPS  100000
Info: FIXED ATOMS ACTIVE
Info: LANGEVIN DYNAMICS ACTIVE
Info: LANGEVIN TEMPERATURE   30
Info: LANGEVIN USING BBK INTEGRATOR
Info: LANGEVIN DAMPING COEFFICIENT IS 1 INVERSE PS
Info: LANGEVIN DYNAMICS APPLIED TO HYDROGENS
Info: LANGEVIN PISTON PRESSURE CONTROL ACTIVE
Info:        TARGET PRESSURE IS 1.01325 BAR
Info:     OSCILLATION PERIOD IS 50 FS
Info:             DECAY TIME IS 25 FS
Info:     PISTON TEMPERATURE IS 300 K
Info:       PRESSURE CONTROL IS GROUP-BASED
Info:    INITIAL STRAIN RATE IS 0 0 0
Info:       CELL FLUCTUATION IS ISOTROPIC
Info: PARTICLE MESH EWALD (PME) ACTIVE
Info: PME TOLERANCE               1e-06
Info: PME EWALD COEFFICIENT       0.348832
Info: PME INTERPOLATION ORDER     4
Info: PME GRID DIMENSIONS         40 36 36
Info: PME MAXIMUM GRID SPACING    1
Info: FULL ELECTROSTATIC EVALUATION FREQUENCY      2
Info: USING VERLET I (r-RESPA) MTS SCHEME.
Info: C1 SPLITTING OF LONG RANGE ELECTROSTATICS
Info: PLACING ATOMS IN PATCHES BY HYDROGEN GROUPS
Info: RIGID BONDS TO HYDROGEN : ALL
Info:         ERROR TOLERANCE : 1e-08
Info:          MAX ITERATIONS : 100
Info: RIGID WATER USING SETTLE ALGORITHM
Info: RANDOM NUMBER SEED     1743673540
Info: USE HYDROGEN BONDS?    NO
Info: Using AMBER format force field!
Info: AMBER PARM FILE        mobley_2198613.prmtop
Info: COORDINATE PDB         mobley_2198613.pdb
Info: Exclusions will be read from PARM file!
Info: SCNB (VDW SCALING)     2
Info: USING ARITHMETIC MEAN TO COMBINE L-J SIGMA PARAMETERS
Info: BINARY COORDINATES     mobley_2198613_min.coor
Info: SUMMARY OF PARAMETERS:
Info: 6 BONDS
Info: 6 ANGLES
Info:   6 HARMONIC
Info:   0 COSINE-BASED
Info: 3 DIHEDRAL
Info: 0 IMPROPER
Info: 0 CROSSTERM
Info: 0 VDW
Info: 21 VDW_PAIRS
Info: 0 NBTHOLE_PAIRS
Info: STRUCTURE SUMMARY:
Info: 2927 ATOMS
Info: 2926 BONDS
Info: 12 ANGLES
Info: 12 DIHEDRALS
Info: 0 IMPROPERS
Info: 0 CROSSTERMS
Info: 2947 EXCLUSIONS
Info: 8 FIXED ATOMS
Info: 2924 RIGID BONDS
Info: 5 RIGID BONDS BETWEEN FIXED ATOMS
Info: 5838 DEGREES OF FREEDOM
Info: 976 HYDROGEN GROUPS
Info: 4 ATOMS IN LARGEST HYDROGEN GROUP
Info: 976 MIGRATION GROUPS
Info: 4 ATOMS IN LARGEST MIGRATION GROUP
Info: 3 HYDROGEN GROUPS WITH ALL ATOMS FIXED
Info: TOTAL MASS = 17594.1 amu
Info: TOTAL CHARGE = 0 e
Info: MASS DENSITY = 0.67608 g/cm^3
Info: ATOM DENSITY = 0.0677322 atoms/A^3
Info: ADDED 0 IMPLICIT EXCLUSIONS
Info: NONBONDED TABLE R-SQUARED SPACING: 0.0625
Info: NONBONDED TABLE SIZE: 705 POINTS
Info: REMOVING COM VELOCITY 0.163825 0.120641 -0.0249933
TCL: Running for 100000 steps
ETITLE: TS BOND ANGLE DIHED IMPRP ELECT VDW BOUNDARY MISC KINETIC TOTAL TEMP POTENTIAL TOTAL3 TEMPAVG PRESSURE GPRESSURE VOLUME PRESSAVG GPRESSAVG
ENERGY: 0 0.0000 0.0000 0.0000 0.0000 -13623.1974 2409.7307 0.0000 0.0000 1716.6639 -9496.8029 295.9454 -11213.4668 -9496.4668 295.9454 432.9711 458.6112 43214.2906 432.9711 458.6112
ENERGY: 100000 0.0000 0.0000 0.0000 0.0000 -14205.5913 2645.9349 0.0000 0.0000 171.0302 -11388.6262 29.4849 -11559.6564 -11388.3300 30.8694 1627.1665 1668.1079 29785.0910 2.6454 2.6454
TCL: Running 100000 steps at 60 kelvin.
TCL: Setting parameter langevinTemp to 60
TCL: Running for 100000 steps
ETITLE: TS BOND ANGLE DIHED IMPRP ELECT VDW BOUNDARY MISC KINETIC TOTAL TEMP POTENTIAL TOTAL3 TEMPAVG PRESSURE GPRESSURE VOLUME PRESSAVG GPRESSAVG
ENERGY: 100000 0.0000 0.0000 0.0000 0.0000 -14205.5913 2645.9349 0.0000 0.0000 170.9421 -11388.7143 29.4697 -11559.6564 -11388.4142 29.4697 1618.5919 1668.1553 29785.0910 1618.5919 1668.1553
ENERGY: 200000 0.0000 0.0000 0.0000 0.0000 -14033.4885 2437.1425 0.0000 0.0000 358.8805 -11237.4655 61.8694 -11596.3461 -11236.6901 60.0093 -98.6015 -78.4370 29288.7998 3.5918 3.6055
TCL: Running 100000 steps at 90 kelvin.
TCL: Setting parameter langevinTemp to 90
TCL: Running for 100000 steps
ETITLE: TS BOND ANGLE DIHED IMPRP ELECT VDW BOUNDARY MISC KINETIC TOTAL TEMP POTENTIAL TOTAL3 TEMPAVG PRESSURE GPRESSURE VOLUME PRESSAVG GPRESSAVG
ENERGY: 200000 0.0000 0.0000 0.0000 0.0000 -14033.4885 2437.1425 0.0000 0.0000 358.7105 -11237.6356 61.8401 -11596.3461 -11236.8885 61.8401 -121.6926 -78.6473 29288.7998 -121.6926 -78.6473
ENERGY: 300000 0.0000 0.0000 0.0000 0.0000 -13890.3518 2408.4233 0.0000 0.0000 514.0228 -10967.9057 88.6153 -11481.9285 -10966.5411 89.9668 29.9483 129.1663 29086.3535 5.3105 5.2090
TCL: Running 100000 steps at 120 kelvin.
TCL: Setting parameter langevinTemp to 120
TCL: Running for 100000 steps
ETITLE: TS BOND ANGLE DIHED IMPRP ELECT VDW BOUNDARY MISC KINETIC TOTAL TEMP POTENTIAL TOTAL3 TEMPAVG PRESSURE GPRESSURE VOLUME PRESSAVG GPRESSAVG
ENERGY: 300000 0.0000 0.0000 0.0000 0.0000 -13890.3518 2408.4233 0.0000 0.0000 513.7619 -10968.1666 88.5703 -11481.9285 -10967.2568 88.5703 62.4262 130.0706 29086.3535 62.4262 130.0706
ENERGY: 400000 0.0000 0.0000 0.0000 0.0000 -13698.0482 2294.2964 0.0000 0.0000 723.8593 -10679.8924 124.7902 -11403.7518 -10678.3483 119.8315 -551.2194 -491.4546 29209.2009 4.0046 4.0381
TCL: Running 100000 steps at 150 kelvin.
TCL: Setting parameter langevinTemp to 150
TCL: Running for 100000 steps
ETITLE: TS BOND ANGLE DIHED IMPRP ELECT VDW BOUNDARY MISC KINETIC TOTAL TEMP POTENTIAL TOTAL3 TEMPAVG PRESSURE GPRESSURE VOLUME PRESSAVG GPRESSAVG
ENERGY: 400000 0.0000 0.0000 0.0000 0.0000 -13698.0482 2294.2964 0.0000 0.0000 723.5095 -10680.2423 124.7299 -11403.7518 -10678.6455 124.7299 -552.2887 -491.7882 29209.2009 -552.2887 -491.7882
ENERGY: 500000 0.0000 0.0000 0.0000 0.0000 -13499.8764 2288.0240 0.0000 0.0000 854.9842 -10356.8683 147.3955 -11211.8524 -10354.5348 149.9805 104.8332 200.8844 28989.3133 5.2792 5.0644
TCL: Running 100000 steps at 180 kelvin.
TCL: Setting parameter langevinTemp to 180
TCL: Running for 100000 steps
ETITLE: TS BOND ANGLE DIHED IMPRP ELECT VDW BOUNDARY MISC KINETIC TOTAL TEMP POTENTIAL TOTAL3 TEMPAVG PRESSURE GPRESSURE VOLUME PRESSAVG GPRESSAVG
ENERGY: 500000 0.0000 0.0000 0.0000 0.0000 -13499.8764 2288.0240 0.0000 0.0000 854.5431 -10357.3093 147.3195 -11211.8524 -10355.6712 147.3195 144.3953 199.9930 28989.3133 144.3953 199.9930
ENERGY: 600000 0.0000 0.0000 0.0000 0.0000 -13019.7469 2117.8283 0.0000 0.0000 1033.1557 -9868.7628 178.1116 -10901.9186 -9865.0737 180.0013 114.0199 130.9545 28899.0296 2.2398 2.0115
TCL: Running 100000 steps at 210 kelvin.
TCL: Setting parameter langevinTemp to 210
TCL: Running for 100000 steps
ETITLE: TS BOND ANGLE DIHED IMPRP ELECT VDW BOUNDARY MISC KINETIC TOTAL TEMP POTENTIAL TOTAL3 TEMPAVG PRESSURE GPRESSURE VOLUME PRESSAVG GPRESSAVG
ENERGY: 600000 0.0000 0.0000 0.0000 0.0000 -13019.7469 2117.8283 0.0000 0.0000 1032.6299 -9869.2886 178.0209 -10901.9186 -9867.0384 178.0209 76.5897 131.8742 28899.0296 76.5897 131.8742
ENERGY: 700000 0.0000 0.0000 0.0000 0.0000 -12374.3967 1965.8938 0.0000 0.0000 1171.5199 -9236.9830 201.9649 -10408.5029 -9235.6591 209.1920 954.7520 1003.3263 28418.8009 1.8222 1.5722
TCL: Running 100000 steps at 240 kelvin.
TCL: Setting parameter langevinTemp to 240
TCL: Running for 100000 steps
ETITLE: TS BOND ANGLE DIHED IMPRP ELECT VDW BOUNDARY MISC KINETIC TOTAL TEMP POTENTIAL TOTAL3 TEMPAVG PRESSURE GPRESSURE VOLUME PRESSAVG GPRESSAVG
ENERGY: 700000 0.0000 0.0000 0.0000 0.0000 -12374.3967 1965.8938 0.0000 0.0000 1170.9297 -9237.5732 201.8632 -10408.5029 -9235.9181 201.8632 926.9819 1002.8440 28418.8009 926.9819 1002.8440
ENERGY: 800000 0.0000 0.0000 0.0000 0.0000 -11739.0629 1703.9200 0.0000 0.0000 1391.0937 -8644.0492 239.8185 -10035.1429 -8643.8507 239.3515 -266.5903 -128.9070 28996.3759 4.7373 4.4920
TCL: Running 100000 steps at 270 kelvin.
TCL: Setting parameter langevinTemp to 270
TCL: Running for 100000 steps
ETITLE: TS BOND ANGLE DIHED IMPRP ELECT VDW BOUNDARY MISC KINETIC TOTAL TEMP POTENTIAL TOTAL3 TEMPAVG PRESSURE GPRESSURE VOLUME PRESSAVG GPRESSAVG
ENERGY: 800000 0.0000 0.0000 0.0000 0.0000 -11739.0629 1703.9200 0.0000 0.0000 1390.4265 -8644.7164 239.7035 -10035.1429 -8642.5405 239.7035 -222.8127 -130.7855 28996.3759 -222.8127 -130.7855
ENERGY: 900000 0.0000 0.0000 0.0000 0.0000 -11214.4427 1642.4311 0.0000 0.0000 1610.5392 -7961.4723 277.6499 -9572.0115 -7958.9452 269.6809 710.6868 844.0286 29366.2051 2.8370 2.7847
TCL: Running 1000000 steps at 300 kelvin.
TCL: Setting parameter langevinTemp to 300
TCL: Running for 1000000 steps
ETITLE: TS BOND ANGLE DIHED IMPRP ELECT VDW BOUNDARY MISC KINETIC TOTAL TEMP POTENTIAL TOTAL3 TEMPAVG PRESSURE GPRESSURE VOLUME PRESSAVG GPRESSAVG
ENERGY: 900000 0.0000 0.0000 0.0000 0.0000 -11214.4427 1642.4311 0.0000 0.0000 1609.7499 -7962.2616 277.5139 -9572.0115 -7960.1816 277.5139 756.3321 844.4624 29366.2051 756.3321 844.4624
ENERGY: 1100000 0.0000 0.0000 0.0000 0.0000 -10613.2962 1452.3454 0.0000 0.0000 1766.9615 -7393.9893 304.6165 -9160.9508 -7391.0585 300.7527 191.2379 234.8602 30398.2760 3.0839 3.0927
ENERGY: 1300000 0.0000 0.0000 0.0000 0.0000 -10621.1684 1409.0205 0.0000 0.0000 1700.2744 -7511.8735 293.1199 -9212.1479 -7508.3019 300.4417 -405.0107 -362.0589 30252.1626 3.1733 3.1925
ENERGY: 1500000 0.0000 0.0000 0.0000 0.0000 -10599.6770 1432.7004 0.0000 0.0000 1701.7932 -7465.1833 293.3817 -9166.9766 -7463.0276 300.2611 120.0883 247.8331 30086.3163 4.2315 4.0783
ENERGY: 1700000 0.0000 0.0000 0.0000 0.0000 -10720.1382 1465.5177 0.0000 0.0000 1738.0428 -7516.5777 299.6310 -9254.6206 -7511.1325 299.7125 -17.4147 49.7988 30548.3140 3.4084 3.3326
ENERGY: 1900000 0.0000 0.0000 0.0000 0.0000 -10707.7467 1472.8258 0.0000 0.0000 1779.0735 -7455.8474 306.7045 -9234.9209 -7451.5517 298.9599 639.3400 703.0701 29422.2509 3.0364 3.1788
TCL: Exiting due to exit command.
