Info: SIMULATION PARAMETERS:
Info: TIMESTEP               2
Info: NUMBER OF STEPS        0
Info: STEPS PER CYCLE        10
Info: PERIODIC CELL BASIS 1  36.592 0 0
Info: PERIODIC CELL BASIS 2  0 35.779 0
Info: PERIODIC CELL BASIS 3  0 0 33.876
Info: PERIODIC CELL CENTER   0 0 0
Info: WRAPPING WATERS AROUND PERIODIC BOUNDARIES ON OUTPUT.
Info: WRAPPING ALL CLUSTERS AROUND PERIODIC BOUNDARIES ON OUTPUT.
Info: FIRST LDB TIMESTEP     50
Info: LAST LDB TIMESTEP     -1
Info: HOM BACKGROUND SCALING 1
Info: PME BACKGROUND SCALING 1
Info: MIN ATOMS PER PATCH    40
Info: EMPTY PATCH LOAD       40 ATOMS
Info: INITIAL TEMPERATURE    300
Info: CENTER OF MASS MOVING INITIALLY? NO
Info: DIELECTRIC             1
Info: EXCLUDE                SCALED ONE-FOUR
Info: 1-4 ELECTROSTATICS SCALED BY 0.833333
Info: MODIFIED 1-4 VDW PARAMETERS WILL BE USED
Info: DCD FILENAME           mobley_8011706_equil.dcd
Info: DCD FREQUENCY          100000
Info: DCD FIRST STEP         100000
Info: DCD FILE WILL CONTAIN UNIT CELL DATA
Info: XST FILENAME           mobley_8011706_equil.xst
Info: XST FREQUENCY          100000
Info: NO VELOCITY DCD OUTPUT
Info: NO FORCE DCD OUTPUT
Info: OUTPUT FILENAME        mobley_8011706_equil
Info: BINARY OUTPUT FILES WILL BE USED
Info: RESTART FILENAME       mobley_8011706_equil.restart
Info: RESTART FREQUENCY      100000
Info: BINARY RESTART FILES WILL BE USED
Info: CUTOFF                 9
Info: PAIRLIST DISTANCE      11
Info: PAIRLIST SHRINK RATE   0.01
Info: PAIRLIST GROW RATE     0.01
Info: PAIRLIST TRIGGER       0.3
Info: PAIRLISTS PER CYCLE    2
Info: PAIRLISTS ENABLED
Info: MARGIN                 8
Info: HYDROGEN GROUP CUTOFF  2.5
Info: PATCH DIMENSION        21.5
Info: ENERGY OUTPUT STEPS    100000
Info: ENERGY EVALUATION STEPS    100000
Info: OUTPUT ENERGY PRECISION 4
Info: CROSSTERM ENERGY INCLUDED IN DIHEDRAL
Info: TIMING OUTPUT STEPS    1000000
Info: PRESSURE OUTPUT STEPS  100000
Info: FIXED ATOMS ACTIVE
Info: LANGEVIN DYNAMICS ACTIVE
Info: LANGEVIN TEMPERATURE   30
Info: LANGEVIN USING BBK INTEGRATOR
Info: LANGEVIN DAMPING COEFFICIENT IS 1 INVERSE PS
Info: LANGEVIN DYNAMICS APPLIED TO HYDROGENS
Info: LANGEVIN PISTON PRESSURE CONTROL ACTIVE
Info:        TARGET PRESSURE IS 1.01325 BAR
Info:     OSCILLATION PERIOD IS 50 FS
Info:             DECAY TIME IS 25 FS
Info:     PISTON TEMPERATURE IS 300 K
Info:       PRESSURE CONTROL IS GROUP-BASED
Info:    INITIAL STRAIN RATE IS 0 0 0
Info:       CELL FLUCTUATION IS ISOTROPIC
Info: PARTICLE MESH EWALD (PME) ACTIVE
Info: PME TOLERANCE               1e-06
Info: PME EWALD COEFFICIENT       0.348832
Info: PME INTERPOLATION ORDER     4
Info: PME GRID DIMENSIONS         40 36 36
Info: PME MAXIMUM GRID SPACING    1
Info: FULL ELECTROSTATIC EVALUATION FREQUENCY      2
Info: USING VERLET I (r-RESPA) MTS SCHEME.
Info: C1 SPLITTING OF LONG RANGE ELECTROSTATICS
Info: PLACING ATOMS IN PATCHES BY HYDROGEN GROUPS
Info: RIGID BONDS TO HYDROGEN : ALL
Info:         ERROR TOLERANCE : 1e-08
Info:          MAX ITERATIONS : 100
Info: RIGID WATER USING SETTLE ALGORITHM
Info: RANDOM NUMBER SEED     1743901019
Info: USE HYDROGEN BONDS?    NO
Info: Using AMBER format force field!
Info: AMBER PARM FILE        mobley_8011706.prmtop
Info: COORDINATE PDB         mobley_8011706.pdb
Info: Exclusions will be read from PARM file!
Info: SCNB (VDW SCALING)     2
Info: USING ARITHMETIC MEAN TO COMBINE L-J SIGMA PARAMETERS
Info: BINARY COORDINATES     mobley_8011706_min.coor
Info: SUMMARY OF PARAMETERS:
Info: 7 BONDS
Info: 7 ANGLES
Info:   7 HARMONIC
Info:   0 COSINE-BASED
Info: 4 DIHEDRAL
Info: 0 IMPROPER
Info: 0 CROSSTERM
Info: 0 VDW
Info: 36 VDW_PAIRS
Info: 0 NBTHOLE_PAIRS
Info: STRUCTURE SUMMARY:
Info: 2913 ATOMS
Info: 2912 BONDS
Info: 18 ANGLES
Info: 18 DIHEDRALS
Info: 0 IMPROPERS
Info: 0 CROSSTERMS
Info: 2946 EXCLUSIONS
Info: 12 FIXED ATOMS
Info: 2908 RIGID BONDS
Info: 7 RIGID BONDS BETWEEN FIXED ATOMS
Info: 5802 DEGREES OF FREEDOM
Info: 972 HYDROGEN GROUPS
Info: 4 ATOMS IN LARGEST HYDROGEN GROUP
Info: 972 MIGRATION GROUPS
Info: 4 ATOMS IN LARGEST MIGRATION GROUP
Info: 5 HYDROGEN GROUPS WITH ALL ATOMS FIXED
Info: TOTAL MASS = 17494.6 amu
Info: TOTAL CHARGE = -0.000200003 e
Info: MASS DENSITY = 0.655022 g/cm^3
Info: ATOM DENSITY = 0.0656801 atoms/A^3
Info: ADDED 0 IMPLICIT EXCLUSIONS
Info: NONBONDED TABLE R-SQUARED SPACING: 0.0625
Info: NONBONDED TABLE SIZE: 705 POINTS
Info: REMOVING COM VELOCITY -0.0563785 -0.0615522 0.0818583
TCL: Running for 100000 steps
ETITLE: TS BOND ANGLE DIHED IMPRP ELECT VDW BOUNDARY MISC KINETIC TOTAL TEMP POTENTIAL TOTAL3 TEMPAVG PRESSURE GPRESSURE VOLUME PRESSAVG GPRESSAVG
ENERGY: 0 0.0000 0.0000 0.0000 0.0000 -13537.3947 2376.8354 0.0000 0.0000 1692.4296 -9468.1298 293.5778 -11160.5593 -9467.8080 293.5778 426.9131 453.1755 44351.3118 426.9131 453.1755
ENERGY: 100000 0.0000 0.0000 0.0000 0.0000 -14162.1353 2509.3908 0.0000 0.0000 173.2627 -11479.4817 30.0551 -11652.7444 -11478.9475 30.8475 395.4421 445.2839 28831.6724 4.6657 4.6674
TCL: Running 100000 steps at 60 kelvin.
TCL: Setting parameter langevinTemp to 60
TCL: Running for 100000 steps
ETITLE: TS BOND ANGLE DIHED IMPRP ELECT VDW BOUNDARY MISC KINETIC TOTAL TEMP POTENTIAL TOTAL3 TEMPAVG PRESSURE GPRESSURE VOLUME PRESSAVG GPRESSAVG
ENERGY: 100000 0.0000 0.0000 0.0000 0.0000 -14162.1353 2509.3908 0.0000 0.0000 173.1723 -11479.5721 30.0394 -11652.7444 -11479.2553 30.0394 399.4282 445.4753 28831.6724 399.4282 445.4753
ENERGY: 200000 0.0000 0.0000 0.0000 0.0000 -13988.9804 2352.1234 0.0000 0.0000 353.8590 -11282.9980 61.3823 -11636.8570 -11281.7234 59.9094 -621.3422 -553.4481 28462.5173 3.8842 3.9123
TCL: Running 100000 steps at 90 kelvin.
TCL: Setting parameter langevinTemp to 90
TCL: Running for 100000 steps
ETITLE: TS BOND ANGLE DIHED IMPRP ELECT VDW BOUNDARY MISC KINETIC TOTAL TEMP POTENTIAL TOTAL3 TEMPAVG PRESSURE GPRESSURE VOLUME PRESSAVG GPRESSAVG
ENERGY: 200000 0.0000 0.0000 0.0000 0.0000 -13988.9804 2352.1234 0.0000 0.0000 353.6924 -11283.1646 61.3534 -11636.8570 -11282.3881 61.3534 -613.9894 -553.2583 28462.5173 -613.9894 -553.2583
ENERGY: 300000 0.0000 0.0000 0.0000 0.0000 -13892.0254 2373.6265 0.0000 0.0000 529.0658 -10989.3331 91.7746 -11518.3989 -10988.6282 90.0414 -2.3012 97.5070 28401.1688 4.4890 4.4014
TCL: Running 100000 steps at 120 kelvin.
TCL: Setting parameter langevinTemp to 120
TCL: Running for 100000 steps
ETITLE: TS BOND ANGLE DIHED IMPRP ELECT VDW BOUNDARY MISC KINETIC TOTAL TEMP POTENTIAL TOTAL3 TEMPAVG PRESSURE GPRESSURE VOLUME PRESSAVG GPRESSAVG
ENERGY: 300000 0.0000 0.0000 0.0000 0.0000 -13892.0254 2373.6265 0.0000 0.0000 528.8071 -10989.5919 91.7297 -11518.3989 -10988.7847 91.7297 31.6733 97.4301 28401.1688 31.6733 97.4301
ENERGY: 400000 0.0000 0.0000 0.0000 0.0000 -13771.5605 2379.8278 0.0000 0.0000 701.4342 -10690.2985 121.6745 -11391.7327 -10688.9065 120.0818 649.3981 705.9831 28420.1730 3.0399 2.9865
TCL: Running 100000 steps at 150 kelvin.
TCL: Setting parameter langevinTemp to 150
TCL: Running for 100000 steps
ETITLE: TS BOND ANGLE DIHED IMPRP ELECT VDW BOUNDARY MISC KINETIC TOTAL TEMP POTENTIAL TOTAL3 TEMPAVG PRESSURE GPRESSURE VOLUME PRESSAVG GPRESSAVG
ENERGY: 400000 0.0000 0.0000 0.0000 0.0000 -13771.5605 2379.8278 0.0000 0.0000 701.0862 -10690.6465 121.6141 -11391.7327 -10689.5284 121.6141 667.6842 706.0139 28420.1730 667.6842 706.0139
ENERGY: 500000 0.0000 0.0000 0.0000 0.0000 -13384.4266 2138.2984 0.0000 0.0000 847.3321 -10398.7961 146.9827 -11246.1282 -10396.8354 149.5240 -937.3545 -867.3950 28602.5735 4.5191 4.7355
TCL: Running 100000 steps at 180 kelvin.
TCL: Setting parameter langevinTemp to 180
TCL: Running for 100000 steps
ETITLE: TS BOND ANGLE DIHED IMPRP ELECT VDW BOUNDARY MISC KINETIC TOTAL TEMP POTENTIAL TOTAL3 TEMPAVG PRESSURE GPRESSURE VOLUME PRESSAVG GPRESSAVG
ENERGY: 500000 0.0000 0.0000 0.0000 0.0000 -13384.4266 2138.2984 0.0000 0.0000 846.8871 -10399.2411 146.9055 -11246.1282 -10397.6764 146.9055 -931.8171 -868.2498 28602.5735 -931.8171 -868.2498
ENERGY: 600000 0.0000 0.0000 0.0000 0.0000 -12969.3103 2025.0230 0.0000 0.0000 1042.7780 -9901.5092 180.8858 -10944.2873 -9899.1707 179.7546 -724.9185 -651.8410 28641.0210 3.6508 3.5673
TCL: Running 100000 steps at 210 kelvin.
TCL: Setting parameter langevinTemp to 210
TCL: Running for 100000 steps
ETITLE: TS BOND ANGLE DIHED IMPRP ELECT VDW BOUNDARY MISC KINETIC TOTAL TEMP POTENTIAL TOTAL3 TEMPAVG PRESSURE GPRESSURE VOLUME PRESSAVG GPRESSAVG
ENERGY: 600000 0.0000 0.0000 0.0000 0.0000 -12969.3103 2025.0230 0.0000 0.0000 1042.2701 -9902.0172 180.7977 -10944.2873 -9899.7122 180.7977 -722.8561 -653.4500 28641.0210 -722.8561 -653.4500
ENERGY: 700000 0.0000 0.0000 0.0000 0.0000 -12355.9025 1878.6815 0.0000 0.0000 1213.5216 -9263.6995 210.5039 -10477.2210 -9259.9220 210.3092 114.0077 213.0883 28168.0129 2.9985 2.9775
TCL: Running 100000 steps at 240 kelvin.
TCL: Setting parameter langevinTemp to 240
TCL: Running for 100000 steps
ETITLE: TS BOND ANGLE DIHED IMPRP ELECT VDW BOUNDARY MISC KINETIC TOTAL TEMP POTENTIAL TOTAL3 TEMPAVG PRESSURE GPRESSURE VOLUME PRESSAVG GPRESSAVG
ENERGY: 700000 0.0000 0.0000 0.0000 0.0000 -12355.9025 1878.6815 0.0000 0.0000 1212.8921 -9264.3290 210.3947 -10477.2210 -9262.1357 210.3947 129.9016 214.1582 28168.0129 129.9016 214.1582
ENERGY: 800000 0.0000 0.0000 0.0000 0.0000 -11711.0876 1682.1265 0.0000 0.0000 1402.3162 -8626.6449 243.2532 -10028.9611 -8624.4662 239.9409 -222.1711 -123.1408 28831.2383 2.6240 2.5527
TCL: Running 100000 steps at 270 kelvin.
TCL: Setting parameter langevinTemp to 270
TCL: Running for 100000 steps
ETITLE: TS BOND ANGLE DIHED IMPRP ELECT VDW BOUNDARY MISC KINETIC TOTAL TEMP POTENTIAL TOTAL3 TEMPAVG PRESSURE GPRESSURE VOLUME PRESSAVG GPRESSAVG
ENERGY: 800000 0.0000 0.0000 0.0000 0.0000 -11711.0876 1682.1265 0.0000 0.0000 1401.6293 -8627.3318 243.1341 -10028.9611 -8625.0589 243.1341 -212.4581 -123.4962 28831.2383 -212.4581 -123.4962
ENERGY: 900000 0.0000 0.0000 0.0000 0.0000 -11213.9315 1574.8968 0.0000 0.0000 1563.1520 -8075.8827 271.1527 -9639.0347 -8071.7022 270.1866 290.1895 354.8994 29017.1940 3.2396 3.4767
TCL: Running 1000000 steps at 300 kelvin.
TCL: Setting parameter langevinTemp to 300
TCL: Running for 1000000 steps
ETITLE: TS BOND ANGLE DIHED IMPRP ELECT VDW BOUNDARY MISC KINETIC TOTAL TEMP POTENTIAL TOTAL3 TEMPAVG PRESSURE GPRESSURE VOLUME PRESSAVG GPRESSAVG
ENERGY: 900000 0.0000 0.0000 0.0000 0.0000 -11213.9315 1574.8968 0.0000 0.0000 1562.3813 -8076.6533 271.0190 -9639.0347 -8073.9664 271.0190 260.6562 355.6179 29017.1940 260.6562 355.6179
ENERGY: 1100000 0.0000 0.0000 0.0000 0.0000 -10525.0840 1314.2947 0.0000 0.0000 1716.5340 -7494.2553 297.7591 -9210.7893 -7490.0300 300.1402 -782.6665 -682.5969 29709.1138 3.4412 3.2808
ENERGY: 1300000 0.0000 0.0000 0.0000 0.0000 -10650.5657 1433.0201 0.0000 0.0000 1749.4612 -7468.0844 303.4709 -9217.5456 -7465.6879 300.1602 329.3634 361.8317 29582.2734 3.6989 3.8171
ENERGY: 1500000 0.0000 0.0000 0.0000 0.0000 -10535.3089 1336.0983 0.0000 0.0000 1763.8663 -7435.3443 305.9696 -9199.2106 -7434.3974 299.8095 -529.0849 -423.8298 29806.6297 3.1856 3.1290
ENERGY: 1700000 0.0000 0.0000 0.0000 0.0000 -10658.9857 1426.6210 0.0000 0.0000 1746.2320 -7486.1326 302.9107 -9232.3647 -7482.0047 301.8352 125.1758 237.7914 29621.3762 2.7967 2.8189
ENERGY: 1900000 0.0000 0.0000 0.0000 0.0000 -10724.5327 1482.2463 0.0000 0.0000 1760.7732 -7481.5132 305.4331 -9242.2864 -7476.5840 299.5074 188.3531 279.6294 30223.0926 4.3292 4.2853
TCL: Exiting due to exit command.
