Info: SIMULATION PARAMETERS:
Info: TIMESTEP               2
Info: NUMBER OF STEPS        0
Info: STEPS PER CYCLE        10
Info: PERIODIC CELL BASIS 1  36.592 0 0
Info: PERIODIC CELL BASIS 2  0 35.411 0
Info: PERIODIC CELL BASIS 3  0 0 33.876
Info: PERIODIC CELL CENTER   0 0 0
Info: WRAPPING WATERS AROUND PERIODIC BOUNDARIES ON OUTPUT.
Info: WRAPPING ALL CLUSTERS AROUND PERIODIC BOUNDARIES ON OUTPUT.
Info: FIRST LDB TIMESTEP     50
Info: LAST LDB TIMESTEP     -1
Info: HOM BACKGROUND SCALING 1
Info: PME BACKGROUND SCALING 1
Info: MIN ATOMS PER PATCH    40
Info: EMPTY PATCH LOAD       40 ATOMS
Info: INITIAL TEMPERATURE    300
Info: CENTER OF MASS MOVING INITIALLY? NO
Info: DIELECTRIC             1
Info: EXCLUDE                SCALED ONE-FOUR
Info: 1-4 ELECTROSTATICS SCALED BY 0.833333
Info: MODIFIED 1-4 VDW PARAMETERS WILL BE USED
Info: DCD FILENAME           mobley_1036761_equil.dcd
Info: DCD FREQUENCY          100000
Info: DCD FIRST STEP         100000
Info: DCD FILE WILL CONTAIN UNIT CELL DATA
Info: XST FILENAME           mobley_1036761_equil.xst
Info: XST FREQUENCY          100000
Info: NO VELOCITY DCD OUTPUT
Info: NO FORCE DCD OUTPUT
Info: OUTPUT FILENAME        mobley_1036761_equil
Info: BINARY OUTPUT FILES WILL BE USED
Info: RESTART FILENAME       mobley_1036761_equil.restart
Info: RESTART FREQUENCY      100000
Info: BINARY RESTART FILES WILL BE USED
Info: CUTOFF                 9
Info: PAIRLIST DISTANCE      11
Info: PAIRLIST SHRINK RATE   0.01
Info: PAIRLIST GROW RATE     0.01
Info: PAIRLIST TRIGGER       0.3
Info: PAIRLISTS PER CYCLE    2
Info: PAIRLISTS ENABLED
Info: MARGIN                 8
Info: HYDROGEN GROUP CUTOFF  2.5
Info: PATCH DIMENSION        21.5
Info: ENERGY OUTPUT STEPS    100000
Info: ENERGY EVALUATION STEPS    100000
Info: OUTPUT ENERGY PRECISION 4
Info: CROSSTERM ENERGY INCLUDED IN DIHEDRAL
Info: TIMING OUTPUT STEPS    1000000
Info: PRESSURE OUTPUT STEPS  100000
Info: FIXED ATOMS ACTIVE
Info: LANGEVIN DYNAMICS ACTIVE
Info: LANGEVIN TEMPERATURE   30
Info: LANGEVIN USING BBK INTEGRATOR
Info: LANGEVIN DAMPING COEFFICIENT IS 1 INVERSE PS
Info: LANGEVIN DYNAMICS APPLIED TO HYDROGENS
Info: LANGEVIN PISTON PRESSURE CONTROL ACTIVE
Info:        TARGET PRESSURE IS 1.01325 BAR
Info:     OSCILLATION PERIOD IS 50 FS
Info:             DECAY TIME IS 25 FS
Info:     PISTON TEMPERATURE IS 300 K
Info:       PRESSURE CONTROL IS GROUP-BASED
Info:    INITIAL STRAIN RATE IS 0 0 0
Info:       CELL FLUCTUATION IS ISOTROPIC
Info: PARTICLE MESH EWALD (PME) ACTIVE
Info: PME TOLERANCE               1e-06
Info: PME EWALD COEFFICIENT       0.348832
Info: PME INTERPOLATION ORDER     4
Info: PME GRID DIMENSIONS         40 36 36
Info: PME MAXIMUM GRID SPACING    1
Info: FULL ELECTROSTATIC EVALUATION FREQUENCY      2
Info: USING VERLET I (r-RESPA) MTS SCHEME.
Info: C1 SPLITTING OF LONG RANGE ELECTROSTATICS
Info: PLACING ATOMS IN PATCHES BY HYDROGEN GROUPS
Info: RIGID BONDS TO HYDROGEN : ALL
Info:         ERROR TOLERANCE : 1e-08
Info:          MAX ITERATIONS : 100
Info: RIGID WATER USING SETTLE ALGORITHM
Info: RANDOM NUMBER SEED     1744678616
Info: USE HYDROGEN BONDS?    NO
Info: Using AMBER format force field!
Info: AMBER PARM FILE        mobley_1036761.prmtop
Info: COORDINATE PDB         mobley_1036761.pdb
Info: Exclusions will be read from PARM file!
Info: SCNB (VDW SCALING)     2
Info: USING ARITHMETIC MEAN TO COMBINE L-J SIGMA PARAMETERS
Info: BINARY COORDINATES     mobley_1036761_min.coor
Info: SUMMARY OF PARAMETERS:
Info: 7 BONDS
Info: 8 ANGLES
Info:   8 HARMONIC
Info:   0 COSINE-BASED
Info: 7 DIHEDRAL
Info: 0 IMPROPER
Info: 0 CROSSTERM
Info: 0 VDW
Info: 28 VDW_PAIRS
Info: 0 NBTHOLE_PAIRS
Info: STRUCTURE SUMMARY:
Info: 2900 ATOMS
Info: 2900 BONDS
Info: 39 ANGLES
Info: 72 DIHEDRALS
Info: 0 IMPROPERS
Info: 0 CROSSTERMS
Info: 2996 EXCLUSIONS
Info: 20 FIXED ATOMS
Info: 2893 RIGID BONDS
Info: 13 RIGID BONDS BETWEEN FIXED ATOMS
Info: 5760 DEGREES OF FREEDOM
Info: 967 HYDROGEN GROUPS
Info: 3 ATOMS IN LARGEST HYDROGEN GROUP
Info: 967 MIGRATION GROUPS
Info: 3 ATOMS IN LARGEST MIGRATION GROUP
Info: 7 HYDROGEN GROUPS WITH ALL ATOMS FIXED
Info: TOTAL MASS = 17394.5 amu
Info: TOTAL CHARGE = 0.000100009 e
Info: MASS DENSITY = 0.658045 g/cm^3
Info: ATOM DENSITY = 0.0660665 atoms/A^3
Info: ADDED 0 IMPLICIT EXCLUSIONS
Info: NONBONDED TABLE R-SQUARED SPACING: 0.0625
Info: NONBONDED TABLE SIZE: 705 POINTS
Info: REMOVING COM VELOCITY -0.0896434 0.0189755 -0.0187442
TCL: Running for 100000 steps
ETITLE: TS BOND ANGLE DIHED IMPRP ELECT VDW BOUNDARY MISC KINETIC TOTAL TEMP POTENTIAL TOTAL3 TEMPAVG PRESSURE GPRESSURE VOLUME PRESSAVG GPRESSAVG
ENERGY: 0 0.0000 0.0000 0.0000 0.0000 -13451.5246 2369.4366 0.0000 0.0000 1759.7476 -9322.3403 307.4810 -11082.0880 -9321.9868 307.4810 572.6129 605.2775 43895.1425 572.6129 605.2775
ENERGY: 100000 0.0000 0.0000 0.0000 0.0000 -14068.8160 2471.3573 0.0000 0.0000 173.6400 -11423.8187 30.3401 -11597.4587 -11423.5336 30.8805 375.0148 413.8591 28098.1357 4.9816 4.9358
TCL: Running 100000 steps at 60 kelvin.
TCL: Setting parameter langevinTemp to 60
TCL: Running for 100000 steps
ETITLE: TS BOND ANGLE DIHED IMPRP ELECT VDW BOUNDARY MISC KINETIC TOTAL TEMP POTENTIAL TOTAL3 TEMPAVG PRESSURE GPRESSURE VOLUME PRESSAVG GPRESSAVG
ENERGY: 100000 0.0000 0.0000 0.0000 0.0000 -14068.8160 2471.3573 0.0000 0.0000 173.5550 -11423.9036 30.3253 -11597.4587 -11423.5188 30.3253 362.9175 413.4714 28098.1357 362.9175 413.4714
ENERGY: 200000 0.0000 0.0000 0.0000 0.0000 -13890.4358 2348.3249 0.0000 0.0000 352.2276 -11189.8833 61.5448 -11542.1109 -11188.6302 59.8793 -359.7056 -288.1027 28014.7292 4.2026 4.2433
TCL: Running 100000 steps at 90 kelvin.
TCL: Setting parameter langevinTemp to 90
TCL: Running for 100000 steps
ETITLE: TS BOND ANGLE DIHED IMPRP ELECT VDW BOUNDARY MISC KINETIC TOTAL TEMP POTENTIAL TOTAL3 TEMPAVG PRESSURE GPRESSURE VOLUME PRESSAVG GPRESSAVG
ENERGY: 200000 0.0000 0.0000 0.0000 0.0000 -13890.4358 2348.3249 0.0000 0.0000 352.0593 -11190.0515 61.5154 -11542.1109 -11189.4437 61.5154 -340.8805 -287.5496 28014.7292 -340.8805 -287.5496
ENERGY: 300000 0.0000 0.0000 0.0000 0.0000 -13742.1228 2308.7288 0.0000 0.0000 502.8734 -10930.5206 87.8672 -11433.3940 -10929.6615 89.9792 -305.2163 -230.5675 28124.8555 4.0188 3.9638
TCL: Running 100000 steps at 120 kelvin.
TCL: Setting parameter langevinTemp to 120
TCL: Running for 100000 steps
ETITLE: TS BOND ANGLE DIHED IMPRP ELECT VDW BOUNDARY MISC KINETIC TOTAL TEMP POTENTIAL TOTAL3 TEMPAVG PRESSURE GPRESSURE VOLUME PRESSAVG GPRESSAVG
ENERGY: 300000 0.0000 0.0000 0.0000 0.0000 -13742.1228 2308.7288 0.0000 0.0000 502.6191 -10930.7749 87.8227 -11433.3940 -10929.7735 87.8227 -281.9383 -230.7556 28124.8555 -281.9383 -230.7556
ENERGY: 400000 0.0000 0.0000 0.0000 0.0000 -13501.6300 2184.9305 0.0000 0.0000 665.2741 -10651.4254 116.2435 -11316.6995 -10649.9330 119.9349 -876.6384 -798.8622 28187.7665 5.0079 4.9348
TCL: Running 100000 steps at 150 kelvin.
TCL: Setting parameter langevinTemp to 150
TCL: Running for 100000 steps
ETITLE: TS BOND ANGLE DIHED IMPRP ELECT VDW BOUNDARY MISC KINETIC TOTAL TEMP POTENTIAL TOTAL3 TEMPAVG PRESSURE GPRESSURE VOLUME PRESSAVG GPRESSAVG
ENERGY: 400000 0.0000 0.0000 0.0000 0.0000 -13501.6300 2184.9305 0.0000 0.0000 664.9177 -10651.7818 116.1812 -11316.6995 -10650.3687 116.1812 -862.5945 -799.0124 28187.7665 -862.5945 -799.0124
ENERGY: 500000 0.0000 0.0000 0.0000 0.0000 -13270.0904 2142.0628 0.0000 0.0000 870.5555 -10257.4722 152.1123 -11128.0277 -10254.8403 150.1343 -464.6966 -444.5835 28237.6706 3.1496 3.1342
TCL: Running 100000 steps at 180 kelvin.
TCL: Setting parameter langevinTemp to 180
TCL: Running for 100000 steps
ETITLE: TS BOND ANGLE DIHED IMPRP ELECT VDW BOUNDARY MISC KINETIC TOTAL TEMP POTENTIAL TOTAL3 TEMPAVG PRESSURE GPRESSURE VOLUME PRESSAVG GPRESSAVG
ENERGY: 500000 0.0000 0.0000 0.0000 0.0000 -13270.0904 2142.0628 0.0000 0.0000 870.1287 -10257.8989 152.0377 -11128.0277 -10255.9279 152.0377 -486.6181 -444.0766 28237.6706 -486.6181 -444.0766
ENERGY: 600000 0.0000 0.0000 0.0000 0.0000 -12948.2643 2050.1245 0.0000 0.0000 1038.6236 -9859.5163 181.4789 -10898.1399 -9856.9451 179.7783 -544.5315 -464.4316 28734.9054 3.6378 3.5036
TCL: Running 100000 steps at 210 kelvin.
TCL: Setting parameter langevinTemp to 210
TCL: Running for 100000 steps
ETITLE: TS BOND ANGLE DIHED IMPRP ELECT VDW BOUNDARY MISC KINETIC TOTAL TEMP POTENTIAL TOTAL3 TEMPAVG PRESSURE GPRESSURE VOLUME PRESSAVG GPRESSAVG
ENERGY: 600000 0.0000 0.0000 0.0000 0.0000 -12948.2643 2050.1245 0.0000 0.0000 1038.1106 -9860.0293 181.3892 -10898.1399 -9857.6935 181.3892 -525.0897 -463.8705 28734.9054 -525.0897 -463.8705
ENERGY: 700000 0.0000 0.0000 0.0000 0.0000 -12236.0992 1834.6661 0.0000 0.0000 1220.7807 -9180.6523 213.3072 -10401.4331 -9177.4037 210.0701 -287.7225 -167.9257 28348.6693 3.2765 3.0512
TCL: Running 100000 steps at 240 kelvin.
TCL: Setting parameter langevinTemp to 240
TCL: Running for 100000 steps
ETITLE: TS BOND ANGLE DIHED IMPRP ELECT VDW BOUNDARY MISC KINETIC TOTAL TEMP POTENTIAL TOTAL3 TEMPAVG PRESSURE GPRESSURE VOLUME PRESSAVG GPRESSAVG
ENERGY: 700000 0.0000 0.0000 0.0000 0.0000 -12236.0992 1834.6661 0.0000 0.0000 1220.1868 -9181.2463 213.2035 -10401.4331 -9179.1096 213.2035 -254.0603 -168.7246 28348.6693 -254.0603 -168.7246
ENERGY: 800000 0.0000 0.0000 0.0000 0.0000 -11687.9310 1683.1178 0.0000 0.0000 1355.8211 -8648.9921 236.9028 -10004.8132 -8647.0945 239.7159 35.5625 155.4147 28239.4598 4.0281 4.0699
TCL: Running 100000 steps at 270 kelvin.
TCL: Setting parameter langevinTemp to 270
TCL: Running for 100000 steps
ETITLE: TS BOND ANGLE DIHED IMPRP ELECT VDW BOUNDARY MISC KINETIC TOTAL TEMP POTENTIAL TOTAL3 TEMPAVG PRESSURE GPRESSURE VOLUME PRESSAVG GPRESSAVG
ENERGY: 800000 0.0000 0.0000 0.0000 0.0000 -11687.9310 1683.1178 0.0000 0.0000 1355.1512 -8649.6620 236.7858 -10004.8132 -8647.4085 236.7858 48.6055 153.1424 28239.4598 48.6055 153.1424
ENERGY: 900000 0.0000 0.0000 0.0000 0.0000 -11139.3300 1586.2235 0.0000 0.0000 1523.8309 -8029.2756 266.2592 -9553.1064 -8027.2413 269.5110 514.0336 583.3887 28859.0379 3.7103 3.7365
TCL: Running 1000000 steps at 300 kelvin.
TCL: Setting parameter langevinTemp to 300
TCL: Running for 1000000 steps
ETITLE: TS BOND ANGLE DIHED IMPRP ELECT VDW BOUNDARY MISC KINETIC TOTAL TEMP POTENTIAL TOTAL3 TEMPAVG PRESSURE GPRESSURE VOLUME PRESSAVG GPRESSAVG
ENERGY: 900000 0.0000 0.0000 0.0000 0.0000 -11139.3300 1586.2235 0.0000 0.0000 1523.1089 -8029.9975 266.1331 -9553.1064 -8027.6717 266.1331 492.3559 580.5856 28859.0379 492.3559 580.5856
ENERGY: 1100000 0.0000 0.0000 0.0000 0.0000 -10529.9342 1388.1267 0.0000 0.0000 1727.9599 -7413.8477 301.9267 -9141.8075 -7411.6201 300.4264 -102.3298 -9.5993 29895.6586 2.0224 2.1741
ENERGY: 1300000 0.0000 0.0000 0.0000 0.0000 -10639.3151 1424.0335 0.0000 0.0000 1709.1392 -7506.1424 298.6382 -9215.2816 -7501.4265 300.0457 -148.4655 -96.6448 29943.4438 2.5706 2.6453
ENERGY: 1500000 0.0000 0.0000 0.0000 0.0000 -10738.6384 1455.2733 0.0000 0.0000 1746.0567 -7537.3085 305.0888 -9283.3652 -7534.6457 300.5759 -66.9675 116.1510 29621.8018 4.3264 4.2516
ENERGY: 1700000 0.0000 0.0000 0.0000 0.0000 -10567.5491 1391.6896 0.0000 0.0000 1721.9484 -7453.9111 300.8763 -9175.8595 -7449.6894 300.5805 -240.8699 -129.1524 29625.6920 1.8402 1.7436
ENERGY: 1900000 0.0000 0.0000 0.0000 0.0000 -10675.9210 1499.4878 0.0000 0.0000 1713.3118 -7463.1214 299.3673 -9176.4332 -7459.1475 299.9317 791.8442 829.7280 29661.8170 2.8615 2.9718
TCL: Exiting due to exit command.
