Info: SIMULATION PARAMETERS:
Info: TIMESTEP               2
Info: NUMBER OF STEPS        0
Info: STEPS PER CYCLE        10
Info: PERIODIC CELL BASIS 1  37.435 0 0
Info: PERIODIC CELL BASIS 2  0 34.457 0
Info: PERIODIC CELL BASIS 3  0 0 33.876
Info: PERIODIC CELL CENTER   0 0 0
Info: WRAPPING WATERS AROUND PERIODIC BOUNDARIES ON OUTPUT.
Info: WRAPPING ALL CLUSTERS AROUND PERIODIC BOUNDARIES ON OUTPUT.
Info: FIRST LDB TIMESTEP     50
Info: LAST LDB TIMESTEP     -1
Info: HOM BACKGROUND SCALING 1
Info: PME BACKGROUND SCALING 1
Info: MIN ATOMS PER PATCH    40
Info: EMPTY PATCH LOAD       40 ATOMS
Info: INITIAL TEMPERATURE    300
Info: CENTER OF MASS MOVING INITIALLY? NO
Info: DIELECTRIC             1
Info: EXCLUDE                SCALED ONE-FOUR
Info: 1-4 ELECTROSTATICS SCALED BY 0.833333
Info: MODIFIED 1-4 VDW PARAMETERS WILL BE USED
Info: DCD FILENAME           mobley_6973347_equil.dcd
Info: DCD FREQUENCY          100000
Info: DCD FIRST STEP         100000
Info: DCD FILE WILL CONTAIN UNIT CELL DATA
Info: XST FILENAME           mobley_6973347_equil.xst
Info: XST FREQUENCY          100000
Info: NO VELOCITY DCD OUTPUT
Info: NO FORCE DCD OUTPUT
Info: OUTPUT FILENAME        mobley_6973347_equil
Info: BINARY OUTPUT FILES WILL BE USED
Info: RESTART FILENAME       mobley_6973347_equil.restart
Info: RESTART FREQUENCY      100000
Info: BINARY RESTART FILES WILL BE USED
Info: CUTOFF                 9
Info: PAIRLIST DISTANCE      11
Info: PAIRLIST SHRINK RATE   0.01
Info: PAIRLIST GROW RATE     0.01
Info: PAIRLIST TRIGGER       0.3
Info: PAIRLISTS PER CYCLE    2
Info: PAIRLISTS ENABLED
Info: MARGIN                 8
Info: HYDROGEN GROUP CUTOFF  2.5
Info: PATCH DIMENSION        21.5
Info: ENERGY OUTPUT STEPS    100000
Info: ENERGY EVALUATION STEPS    100000
Info: OUTPUT ENERGY PRECISION 4
Info: CROSSTERM ENERGY INCLUDED IN DIHEDRAL
Info: TIMING OUTPUT STEPS    1000000
Info: PRESSURE OUTPUT STEPS  100000
Info: FIXED ATOMS ACTIVE
Info: LANGEVIN DYNAMICS ACTIVE
Info: LANGEVIN TEMPERATURE   30
Info: LANGEVIN USING BBK INTEGRATOR
Info: LANGEVIN DAMPING COEFFICIENT IS 1 INVERSE PS
Info: LANGEVIN DYNAMICS APPLIED TO HYDROGENS
Info: LANGEVIN PISTON PRESSURE CONTROL ACTIVE
Info:        TARGET PRESSURE IS 1.01325 BAR
Info:     OSCILLATION PERIOD IS 50 FS
Info:             DECAY TIME IS 25 FS
Info:     PISTON TEMPERATURE IS 300 K
Info:       PRESSURE CONTROL IS GROUP-BASED
Info:    INITIAL STRAIN RATE IS 0 0 0
Info:       CELL FLUCTUATION IS ISOTROPIC
Info: PARTICLE MESH EWALD (PME) ACTIVE
Info: PME TOLERANCE               1e-06
Info: PME EWALD COEFFICIENT       0.348832
Info: PME INTERPOLATION ORDER     4
Info: PME GRID DIMENSIONS         40 36 36
Info: PME MAXIMUM GRID SPACING    1
Info: FULL ELECTROSTATIC EVALUATION FREQUENCY      2
Info: USING VERLET I (r-RESPA) MTS SCHEME.
Info: C1 SPLITTING OF LONG RANGE ELECTROSTATICS
Info: PLACING ATOMS IN PATCHES BY HYDROGEN GROUPS
Info: RIGID BONDS TO HYDROGEN : ALL
Info:         ERROR TOLERANCE : 1e-08
Info:          MAX ITERATIONS : 100
Info: RIGID WATER USING SETTLE ALGORITHM
Info: RANDOM NUMBER SEED     1744721099
Info: USE HYDROGEN BONDS?    NO
Info: Using AMBER format force field!
Info: AMBER PARM FILE        mobley_6973347.prmtop
Info: COORDINATE PDB         mobley_6973347.pdb
Info: Exclusions will be read from PARM file!
Info: SCNB (VDW SCALING)     2
Info: USING ARITHMETIC MEAN TO COMBINE L-J SIGMA PARAMETERS
Info: BINARY COORDINATES     mobley_6973347_min.coor
Info: SUMMARY OF PARAMETERS:
Info: 9 BONDS
Info: 11 ANGLES
Info:   11 HARMONIC
Info:   0 COSINE-BASED
Info: 15 DIHEDRAL
Info: 0 IMPROPER
Info: 0 CROSSTERM
Info: 0 VDW
Info: 36 VDW_PAIRS
Info: 0 NBTHOLE_PAIRS
Info: STRUCTURE SUMMARY:
Info: 2996 ATOMS
Info: 2995 BONDS
Info: 22 ANGLES
Info: 34 DIHEDRALS
Info: 0 IMPROPERS
Info: 0 CROSSTERMS
Info: 3037 EXCLUSIONS
Info: 14 FIXED ATOMS
Info: 2990 RIGID BONDS
Info: 8 RIGID BONDS BETWEEN FIXED ATOMS
Info: 5964 DEGREES OF FREEDOM
Info: 1000 HYDROGEN GROUPS
Info: 4 ATOMS IN LARGEST HYDROGEN GROUP
Info: 1000 MIGRATION GROUPS
Info: 4 ATOMS IN LARGEST MIGRATION GROUP
Info: 6 HYDROGEN GROUPS WITH ALL ATOMS FIXED
Info: TOTAL MASS = 17996 amu
Info: TOTAL CHARGE = 0.000100005 e
Info: MASS DENSITY = 0.683893 g/cm^3
Info: ATOM DENSITY = 0.0685637 atoms/A^3
Info: ADDED 0 IMPLICIT EXCLUSIONS
Info: NONBONDED TABLE R-SQUARED SPACING: 0.0625
Info: NONBONDED TABLE SIZE: 705 POINTS
Info: REMOVING COM VELOCITY -0.13093 -0.0281116 -0.0369709
TCL: Running for 100000 steps
ETITLE: TS BOND ANGLE DIHED IMPRP ELECT VDW BOUNDARY MISC KINETIC TOTAL TEMP POTENTIAL TOTAL3 TEMPAVG PRESSURE GPRESSURE VOLUME PRESSAVG GPRESSAVG
ENERGY: 0 0.0000 0.0000 0.0000 0.0000 -13891.7053 2401.3337 0.0000 0.0000 1775.3023 -9715.0693 299.5885 -11490.3716 -9714.7242 299.5885 172.4687 206.0185 43696.5777 172.4687 206.0185
ENERGY: 100000 0.0000 0.0000 0.0000 0.0000 -14494.8137 2496.5107 0.0000 0.0000 174.7954 -11823.5076 29.4973 -11998.3030 -11823.1033 30.8718 64.1140 101.8100 28618.5056 5.7805 5.7486
TCL: Running 100000 steps at 60 kelvin.
TCL: Setting parameter langevinTemp to 60
TCL: Running for 100000 steps
ETITLE: TS BOND ANGLE DIHED IMPRP ELECT VDW BOUNDARY MISC KINETIC TOTAL TEMP POTENTIAL TOTAL3 TEMPAVG PRESSURE GPRESSURE VOLUME PRESSAVG GPRESSAVG
ENERGY: 100000 0.0000 0.0000 0.0000 0.0000 -14494.8137 2496.5107 0.0000 0.0000 174.7097 -11823.5933 29.4829 -11998.3030 -11823.2103 29.4829 56.0406 101.8362 28618.5056 56.0406 101.8362
ENERGY: 200000 0.0000 0.0000 0.0000 0.0000 -14288.2609 2365.8091 0.0000 0.0000 352.2256 -11570.2261 59.4393 -11922.4517 -11569.5466 59.9151 -722.4887 -655.2868 28610.9499 3.0999 2.9041
TCL: Running 100000 steps at 90 kelvin.
TCL: Setting parameter langevinTemp to 90
TCL: Running for 100000 steps
ETITLE: TS BOND ANGLE DIHED IMPRP ELECT VDW BOUNDARY MISC KINETIC TOTAL TEMP POTENTIAL TOTAL3 TEMPAVG PRESSURE GPRESSURE VOLUME PRESSAVG GPRESSAVG
ENERGY: 200000 0.0000 0.0000 0.0000 0.0000 -14288.2609 2365.8091 0.0000 0.0000 352.0446 -11570.4071 59.4088 -11922.4517 -11569.7219 59.4088 -704.6837 -655.5723 28610.9499 -704.6837 -655.5723
ENERGY: 300000 0.0000 0.0000 0.0000 0.0000 -14264.7588 2420.4724 0.0000 0.0000 531.6409 -11312.6456 89.7163 -11844.2864 -11311.3903 90.2550 45.9454 121.2383 28661.8227 3.8046 3.8422
TCL: Running 100000 steps at 120 kelvin.
TCL: Setting parameter langevinTemp to 120
TCL: Running for 100000 steps
ETITLE: TS BOND ANGLE DIHED IMPRP ELECT VDW BOUNDARY MISC KINETIC TOTAL TEMP POTENTIAL TOTAL3 TEMPAVG PRESSURE GPRESSURE VOLUME PRESSAVG GPRESSAVG
ENERGY: 300000 0.0000 0.0000 0.0000 0.0000 -14264.7588 2420.4724 0.0000 0.0000 531.3749 -11312.9116 89.6714 -11844.2864 -11311.8080 89.6714 78.8205 121.0704 28661.8227 78.8205 121.0704
ENERGY: 400000 0.0000 0.0000 0.0000 0.0000 -14068.4535 2345.9246 0.0000 0.0000 708.7921 -11013.7368 119.6111 -11722.5289 -11012.0707 120.2579 -198.5905 -155.3849 28835.8475 3.4262 3.4739
TCL: Running 100000 steps at 150 kelvin.
TCL: Setting parameter langevinTemp to 150
TCL: Running for 100000 steps
ETITLE: TS BOND ANGLE DIHED IMPRP ELECT VDW BOUNDARY MISC KINETIC TOTAL TEMP POTENTIAL TOTAL3 TEMPAVG PRESSURE GPRESSURE VOLUME PRESSAVG GPRESSAVG
ENERGY: 400000 0.0000 0.0000 0.0000 0.0000 -14068.4535 2345.9246 0.0000 0.0000 708.4429 -11014.0860 119.5522 -11722.5289 -11012.6245 119.5522 -210.1227 -155.7121 28835.8475 -210.1227 -155.7121
ENERGY: 500000 0.0000 0.0000 0.0000 0.0000 -13921.0010 2378.2060 0.0000 0.0000 882.3866 -10660.4084 148.9058 -11542.7951 -10658.2265 150.1189 823.3031 844.1697 28899.2502 3.4190 3.3629
TCL: Running 100000 steps at 180 kelvin.
TCL: Setting parameter langevinTemp to 180
TCL: Running for 100000 steps
ETITLE: TS BOND ANGLE DIHED IMPRP ELECT VDW BOUNDARY MISC KINETIC TOTAL TEMP POTENTIAL TOTAL3 TEMPAVG PRESSURE GPRESSURE VOLUME PRESSAVG GPRESSAVG
ENERGY: 500000 0.0000 0.0000 0.0000 0.0000 -13921.0010 2378.2060 0.0000 0.0000 881.9491 -10660.8459 148.8320 -11542.7951 -10659.5153 148.8320 798.9989 844.4316 28899.2502 798.9989 844.4316
ENERGY: 600000 0.0000 0.0000 0.0000 0.0000 -13301.2495 2057.1838 0.0000 0.0000 1033.6688 -10210.3969 174.4352 -11244.0657 -10207.0986 180.1265 -1048.5609 -973.5774 29659.1494 4.4715 4.4834
TCL: Running 100000 steps at 210 kelvin.
TCL: Setting parameter langevinTemp to 210
TCL: Running for 100000 steps
ETITLE: TS BOND ANGLE DIHED IMPRP ELECT VDW BOUNDARY MISC KINETIC TOTAL TEMP POTENTIAL TOTAL3 TEMPAVG PRESSURE GPRESSURE VOLUME PRESSAVG GPRESSAVG
ENERGY: 600000 0.0000 0.0000 0.0000 0.0000 -13301.2495 2057.1838 0.0000 0.0000 1033.1389 -10210.9268 174.3458 -11244.0657 -10208.8135 174.3458 -1040.5477 -972.8539 29659.1494 -1040.5477 -972.8539
ENERGY: 700000 0.0000 0.0000 0.0000 0.0000 -12660.0537 1893.6012 0.0000 0.0000 1212.6826 -9553.7700 204.6444 -10766.4526 -9551.6833 209.4935 -397.5633 -310.4492 29198.0703 3.8699 3.8847
TCL: Running 100000 steps at 240 kelvin.
TCL: Setting parameter langevinTemp to 240
TCL: Running for 100000 steps
ETITLE: TS BOND ANGLE DIHED IMPRP ELECT VDW BOUNDARY MISC KINETIC TOTAL TEMP POTENTIAL TOTAL3 TEMPAVG PRESSURE GPRESSURE VOLUME PRESSAVG GPRESSAVG
ENERGY: 700000 0.0000 0.0000 0.0000 0.0000 -12660.0537 1893.6012 0.0000 0.0000 1212.0295 -9554.4230 204.5342 -10766.4526 -9552.3975 204.5342 -394.7426 -310.7760 29198.0703 -394.7426 -310.7760
ENERGY: 800000 0.0000 0.0000 0.0000 0.0000 -12079.8884 1762.7993 0.0000 0.0000 1419.0203 -8898.0688 239.4646 -10317.0891 -8894.7770 239.8861 325.6306 390.4841 29083.1533 2.7746 2.8596
TCL: Running 100000 steps at 270 kelvin.
TCL: Setting parameter langevinTemp to 270
TCL: Running for 100000 steps
ETITLE: TS BOND ANGLE DIHED IMPRP ELECT VDW BOUNDARY MISC KINETIC TOTAL TEMP POTENTIAL TOTAL3 TEMPAVG PRESSURE GPRESSURE VOLUME PRESSAVG GPRESSAVG
ENERGY: 800000 0.0000 0.0000 0.0000 0.0000 -12079.8884 1762.7993 0.0000 0.0000 1418.2954 -8898.7937 239.3423 -10317.0891 -8896.4933 239.3423 315.7192 391.6164 29083.1533 315.7192 391.6164
ENERGY: 900000 0.0000 0.0000 0.0000 0.0000 -11432.7154 1586.9876 0.0000 0.0000 1596.6926 -8249.0351 269.4474 -9845.7277 -8245.3169 270.4499 6.4590 23.4322 30261.0062 4.8332 4.7380
TCL: Running 1000000 steps at 300 kelvin.
TCL: Setting parameter langevinTemp to 300
TCL: Running for 1000000 steps
ETITLE: TS BOND ANGLE DIHED IMPRP ELECT VDW BOUNDARY MISC KINETIC TOTAL TEMP POTENTIAL TOTAL3 TEMPAVG PRESSURE GPRESSURE VOLUME PRESSAVG GPRESSAVG
ENERGY: 900000 0.0000 0.0000 0.0000 0.0000 -11432.7154 1586.9876 0.0000 0.0000 1595.8973 -8249.8304 269.3132 -9845.7277 -8247.1289 269.3132 -59.1401 24.6104 30261.0062 -59.1401 24.6104
ENERGY: 1100000 0.0000 0.0000 0.0000 0.0000 -11021.3145 1496.0314 0.0000 0.0000 1756.0675 -7769.2156 296.3425 -9525.2831 -7765.7548 300.3641 260.4323 334.8126 30579.1307 3.9587 3.8477
ENERGY: 1300000 0.0000 0.0000 0.0000 0.0000 -10803.0317 1380.2999 0.0000 0.0000 1821.5634 -7601.1684 307.3952 -9422.7318 -7598.9730 300.5486 -425.2954 -348.0195 30978.0122 2.0441 2.1334
ENERGY: 1500000 0.0000 0.0000 0.0000 0.0000 -10821.8670 1329.3036 0.0000 0.0000 1746.1027 -7746.4607 294.6609 -9492.5634 -7743.4855 300.8839 -1119.1073 -1027.3728 30937.5817 2.9074 2.9277
ENERGY: 1700000 0.0000 0.0000 0.0000 0.0000 -10875.5174 1397.5731 0.0000 0.0000 1769.9581 -7707.9862 298.6866 -9477.9443 -7702.7615 299.9877 -423.0938 -312.6898 30714.0411 2.7971 2.7637
ENERGY: 1900000 0.0000 0.0000 0.0000 0.0000 -10944.5953 1438.4966 0.0000 0.0000 1790.4178 -7715.6809 302.1392 -9506.0987 -7709.8634 300.2724 -419.1087 -299.7899 31046.9683 2.2010 2.1678
TCL: Exiting due to exit command.
