Info: SIMULATION PARAMETERS:
Info: TIMESTEP               2
Info: NUMBER OF STEPS        0
Info: STEPS PER CYCLE        10
Info: PERIODIC CELL BASIS 1  36.592 0 0
Info: PERIODIC CELL BASIS 2  0 34.26 0
Info: PERIODIC CELL BASIS 3  0 0 35.723
Info: PERIODIC CELL CENTER   0 0 0
Info: WRAPPING WATERS AROUND PERIODIC BOUNDARIES ON OUTPUT.
Info: WRAPPING ALL CLUSTERS AROUND PERIODIC BOUNDARIES ON OUTPUT.
Info: FIRST LDB TIMESTEP     50
Info: LAST LDB TIMESTEP     -1
Info: HOM BACKGROUND SCALING 1
Info: PME BACKGROUND SCALING 1
Info: MIN ATOMS PER PATCH    40
Info: EMPTY PATCH LOAD       40 ATOMS
Info: INITIAL TEMPERATURE    300
Info: CENTER OF MASS MOVING INITIALLY? NO
Info: DIELECTRIC             1
Info: EXCLUDE                SCALED ONE-FOUR
Info: 1-4 ELECTROSTATICS SCALED BY 0.833333
Info: MODIFIED 1-4 VDW PARAMETERS WILL BE USED
Info: DCD FILENAME           mobley_6190089_equil.dcd
Info: DCD FREQUENCY          100000
Info: DCD FIRST STEP         100000
Info: DCD FILE WILL CONTAIN UNIT CELL DATA
Info: XST FILENAME           mobley_6190089_equil.xst
Info: XST FREQUENCY          100000
Info: NO VELOCITY DCD OUTPUT
Info: NO FORCE DCD OUTPUT
Info: OUTPUT FILENAME        mobley_6190089_equil
Info: BINARY OUTPUT FILES WILL BE USED
Info: RESTART FILENAME       mobley_6190089_equil.restart
Info: RESTART FREQUENCY      100000
Info: BINARY RESTART FILES WILL BE USED
Info: CUTOFF                 9
Info: PAIRLIST DISTANCE      11
Info: PAIRLIST SHRINK RATE   0.01
Info: PAIRLIST GROW RATE     0.01
Info: PAIRLIST TRIGGER       0.3
Info: PAIRLISTS PER CYCLE    2
Info: PAIRLISTS ENABLED
Info: MARGIN                 8
Info: HYDROGEN GROUP CUTOFF  2.5
Info: PATCH DIMENSION        21.5
Info: ENERGY OUTPUT STEPS    100000
Info: ENERGY EVALUATION STEPS    100000
Info: OUTPUT ENERGY PRECISION 4
Info: CROSSTERM ENERGY INCLUDED IN DIHEDRAL
Info: TIMING OUTPUT STEPS    1000000
Info: PRESSURE OUTPUT STEPS  100000
Info: FIXED ATOMS ACTIVE
Info: LANGEVIN DYNAMICS ACTIVE
Info: LANGEVIN TEMPERATURE   30
Info: LANGEVIN USING BBK INTEGRATOR
Info: LANGEVIN DAMPING COEFFICIENT IS 1 INVERSE PS
Info: LANGEVIN DYNAMICS APPLIED TO HYDROGENS
Info: LANGEVIN PISTON PRESSURE CONTROL ACTIVE
Info:        TARGET PRESSURE IS 1.01325 BAR
Info:     OSCILLATION PERIOD IS 50 FS
Info:             DECAY TIME IS 25 FS
Info:     PISTON TEMPERATURE IS 300 K
Info:       PRESSURE CONTROL IS GROUP-BASED
Info:    INITIAL STRAIN RATE IS 0 0 0
Info:       CELL FLUCTUATION IS ISOTROPIC
Info: PARTICLE MESH EWALD (PME) ACTIVE
Info: PME TOLERANCE               1e-06
Info: PME EWALD COEFFICIENT       0.348832
Info: PME INTERPOLATION ORDER     4
Info: PME GRID DIMENSIONS         40 36 36
Info: PME MAXIMUM GRID SPACING    1
Info: FULL ELECTROSTATIC EVALUATION FREQUENCY      2
Info: USING VERLET I (r-RESPA) MTS SCHEME.
Info: C1 SPLITTING OF LONG RANGE ELECTROSTATICS
Info: PLACING ATOMS IN PATCHES BY HYDROGEN GROUPS
Info: RIGID BONDS TO HYDROGEN : ALL
Info:         ERROR TOLERANCE : 1e-08
Info:          MAX ITERATIONS : 100
Info: RIGID WATER USING SETTLE ALGORITHM
Info: RANDOM NUMBER SEED     1743900568
Info: USE HYDROGEN BONDS?    NO
Info: Using AMBER format force field!
Info: AMBER PARM FILE        mobley_6190089.prmtop
Info: COORDINATE PDB         mobley_6190089.pdb
Info: Exclusions will be read from PARM file!
Info: SCNB (VDW SCALING)     2
Info: USING ARITHMETIC MEAN TO COMBINE L-J SIGMA PARAMETERS
Info: BINARY COORDINATES     mobley_6190089_min.coor
Info: SUMMARY OF PARAMETERS:
Info: 5 BONDS
Info: 4 ANGLES
Info:   4 HARMONIC
Info:   0 COSINE-BASED
Info: 3 DIHEDRAL
Info: 0 IMPROPER
Info: 0 CROSSTERM
Info: 0 VDW
Info: 15 VDW_PAIRS
Info: 0 NBTHOLE_PAIRS
Info: STRUCTURE SUMMARY:
Info: 2984 ATOMS
Info: 2983 BONDS
Info: 12 ANGLES
Info: 13 DIHEDRALS
Info: 0 IMPROPERS
Info: 0 CROSSTERMS
Info: 3004 EXCLUSIONS
Info: 8 FIXED ATOMS
Info: 2978 RIGID BONDS
Info: 2 RIGID BONDS BETWEEN FIXED ATOMS
Info: 5952 DEGREES OF FREEDOM
Info: 998 HYDROGEN GROUPS
Info: 3 ATOMS IN LARGEST HYDROGEN GROUP
Info: 998 MIGRATION GROUPS
Info: 3 ATOMS IN LARGEST MIGRATION GROUP
Info: 6 HYDROGEN GROUPS WITH ALL ATOMS FIXED
Info: TOTAL MASS = 18039.7 amu
Info: TOTAL CHARGE = -0.000199974 e
Info: MASS DENSITY = 0.668909 g/cm^3
Info: ATOM DENSITY = 0.0666312 atoms/A^3
Info: ADDED 0 IMPLICIT EXCLUSIONS
Info: NONBONDED TABLE R-SQUARED SPACING: 0.0625
Info: NONBONDED TABLE SIZE: 705 POINTS
Info: REMOVING COM VELOCITY -0.107292 0.00999333 0.205508
TCL: Running for 100000 steps
ETITLE: TS BOND ANGLE DIHED IMPRP ELECT VDW BOUNDARY MISC KINETIC TOTAL TEMP POTENTIAL TOTAL3 TEMPAVG PRESSURE GPRESSURE VOLUME PRESSAVG GPRESSAVG
ENERGY: 0 0.0000 0.0000 0.0000 0.0000 -13737.8220 2393.9738 0.0000 0.0000 1741.5835 -9602.2647 294.4908 -11343.8482 -9601.9287 294.4908 240.9728 271.2109 44783.8503 240.9728 271.2109
ENERGY: 100000 0.0000 0.0000 0.0000 0.0000 -14335.4461 2425.6792 0.0000 0.0000 180.9678 -11728.7991 30.6005 -11909.7669 -11728.0748 30.9213 -659.4598 -611.8007 29225.2321 4.6925 4.6943
TCL: Running 100000 steps at 60 kelvin.
TCL: Setting parameter langevinTemp to 60
TCL: Running for 100000 steps
ETITLE: TS BOND ANGLE DIHED IMPRP ELECT VDW BOUNDARY MISC KINETIC TOTAL TEMP POTENTIAL TOTAL3 TEMPAVG PRESSURE GPRESSURE VOLUME PRESSAVG GPRESSAVG
ENERGY: 100000 0.0000 0.0000 0.0000 0.0000 -14335.4461 2425.6792 0.0000 0.0000 180.8790 -11728.8879 30.5855 -11909.7669 -11728.5032 30.5855 -666.0389 -611.6286 29225.2321 -666.0389 -611.6286
ENERGY: 200000 0.0000 0.0000 0.0000 0.0000 -14269.5646 2436.4545 0.0000 0.0000 345.2613 -11487.8487 58.3815 -11833.1101 -11486.5667 59.7989 -166.3671 -103.0288 29156.1234 3.6215 3.7101
TCL: Running 100000 steps at 90 kelvin.
TCL: Setting parameter langevinTemp to 90
TCL: Running for 100000 steps
ETITLE: TS BOND ANGLE DIHED IMPRP ELECT VDW BOUNDARY MISC KINETIC TOTAL TEMP POTENTIAL TOTAL3 TEMPAVG PRESSURE GPRESSURE VOLUME PRESSAVG GPRESSAVG
ENERGY: 200000 0.0000 0.0000 0.0000 0.0000 -14269.5646 2436.4545 0.0000 0.0000 345.0845 -11488.0255 58.3516 -11833.1101 -11487.4174 58.3516 -156.5172 -102.5003 29156.1234 -156.5172 -102.5003
ENERGY: 300000 0.0000 0.0000 0.0000 0.0000 -14173.2605 2429.0818 0.0000 0.0000 531.0561 -11213.1226 89.7982 -11744.1787 -11211.6887 90.0669 381.9625 402.2986 28624.4295 3.4373 3.5091
TCL: Running 100000 steps at 120 kelvin.
TCL: Setting parameter langevinTemp to 120
TCL: Running for 100000 steps
ETITLE: TS BOND ANGLE DIHED IMPRP ELECT VDW BOUNDARY MISC KINETIC TOTAL TEMP POTENTIAL TOTAL3 TEMPAVG PRESSURE GPRESSURE VOLUME PRESSAVG GPRESSAVG
ENERGY: 300000 0.0000 0.0000 0.0000 0.0000 -14173.2605 2429.0818 0.0000 0.0000 530.7865 -11213.3922 89.7527 -11744.1787 -11212.4118 89.7527 357.4004 402.5435 28624.4295 357.4004 402.5435
ENERGY: 400000 0.0000 0.0000 0.0000 0.0000 -14076.3473 2430.9795 0.0000 0.0000 733.4657 -10911.9021 124.0244 -11645.3677 -10910.7356 119.9844 662.4032 708.7537 28732.0540 5.1651 5.1533
TCL: Running 100000 steps at 150 kelvin.
TCL: Setting parameter langevinTemp to 150
TCL: Running for 100000 steps
ETITLE: TS BOND ANGLE DIHED IMPRP ELECT VDW BOUNDARY MISC KINETIC TOTAL TEMP POTENTIAL TOTAL3 TEMPAVG PRESSURE GPRESSURE VOLUME PRESSAVG GPRESSAVG
ENERGY: 400000 0.0000 0.0000 0.0000 0.0000 -14076.3473 2430.9795 0.0000 0.0000 733.1168 -10912.2510 123.9654 -11645.3677 -10910.5950 123.9654 670.4881 708.5309 28732.0540 670.4881 708.5309
ENERGY: 500000 0.0000 0.0000 0.0000 0.0000 -13749.7874 2315.7716 0.0000 0.0000 911.8430 -10522.1729 154.1869 -11434.0159 -10520.3078 150.2701 328.9370 347.1706 29073.8890 2.9069 2.8539
TCL: Running 100000 steps at 180 kelvin.
TCL: Setting parameter langevinTemp to 180
TCL: Running for 100000 steps
ETITLE: TS BOND ANGLE DIHED IMPRP ELECT VDW BOUNDARY MISC KINETIC TOTAL TEMP POTENTIAL TOTAL3 TEMPAVG PRESSURE GPRESSURE VOLUME PRESSAVG GPRESSAVG
ENERGY: 500000 0.0000 0.0000 0.0000 0.0000 -13749.7874 2315.7716 0.0000 0.0000 911.4003 -10522.6156 154.1121 -11434.0159 -10521.1030 154.1121 306.8316 347.3932 29073.8890 306.8316 347.3932
ENERGY: 600000 0.0000 0.0000 0.0000 0.0000 -13230.0727 2128.8063 0.0000 0.0000 1074.5825 -10026.6839 181.7052 -11101.2664 -10023.9203 179.7128 -41.1637 43.1722 29270.3845 3.9309 3.8852
TCL: Running 100000 steps at 210 kelvin.
TCL: Setting parameter langevinTemp to 210
TCL: Running for 100000 steps
ETITLE: TS BOND ANGLE DIHED IMPRP ELECT VDW BOUNDARY MISC KINETIC TOTAL TEMP POTENTIAL TOTAL3 TEMPAVG PRESSURE GPRESSURE VOLUME PRESSAVG GPRESSAVG
ENERGY: 600000 0.0000 0.0000 0.0000 0.0000 -13230.0727 2128.8063 0.0000 0.0000 1074.0576 -10027.2089 181.6164 -11101.2664 -10024.8307 181.6164 -21.7191 44.0324 29270.3845 -21.7191 44.0324
ENERGY: 700000 0.0000 0.0000 0.0000 0.0000 -12490.2065 1885.2666 0.0000 0.0000 1229.9505 -9374.9894 207.9769 -10604.9398 -9371.9570 210.3634 -193.4298 -102.6068 29475.4544 3.9580 3.7959
TCL: Running 100000 steps at 240 kelvin.
TCL: Setting parameter langevinTemp to 240
TCL: Running for 100000 steps
ETITLE: TS BOND ANGLE DIHED IMPRP ELECT VDW BOUNDARY MISC KINETIC TOTAL TEMP POTENTIAL TOTAL3 TEMPAVG PRESSURE GPRESSURE VOLUME PRESSAVG GPRESSAVG
ENERGY: 700000 0.0000 0.0000 0.0000 0.0000 -12490.2065 1885.2666 0.0000 0.0000 1229.3493 -9375.5905 207.8752 -10604.9398 -9373.0761 207.8752 -173.5330 -102.5848 29475.4544 -173.5330 -102.5848
ENERGY: 800000 0.0000 0.0000 0.0000 0.0000 -12027.0410 1855.7986 0.0000 0.0000 1412.5251 -8758.7174 238.8491 -10171.2424 -8756.1474 240.3082 994.0782 1111.7028 29433.7018 4.6827 4.7610
TCL: Running 100000 steps at 270 kelvin.
TCL: Setting parameter langevinTemp to 270
TCL: Running for 100000 steps
ETITLE: TS BOND ANGLE DIHED IMPRP ELECT VDW BOUNDARY MISC KINETIC TOTAL TEMP POTENTIAL TOTAL3 TEMPAVG PRESSURE GPRESSURE VOLUME PRESSAVG GPRESSAVG
ENERGY: 800000 0.0000 0.0000 0.0000 0.0000 -12027.0410 1855.7986 0.0000 0.0000 1411.8283 -8759.4141 238.7313 -10171.2424 -8757.4262 238.7313 1020.9903 1111.5212 29433.7018 1020.9903 1111.5212
ENERGY: 900000 0.0000 0.0000 0.0000 0.0000 -11464.5799 1591.4281 0.0000 0.0000 1589.2638 -8283.8880 268.7345 -9873.1518 -8281.6321 269.9929 -260.8481 -201.0431 30236.8273 3.7739 3.6864
TCL: Running 1000000 steps at 300 kelvin.
TCL: Setting parameter langevinTemp to 300
TCL: Running for 1000000 steps
ETITLE: TS BOND ANGLE DIHED IMPRP ELECT VDW BOUNDARY MISC KINETIC TOTAL TEMP POTENTIAL TOTAL3 TEMPAVG PRESSURE GPRESSURE VOLUME PRESSAVG GPRESSAVG
ENERGY: 900000 0.0000 0.0000 0.0000 0.0000 -11464.5799 1591.4281 0.0000 0.0000 1588.4561 -8284.6957 268.5979 -9873.1518 -8282.4335 268.5979 -298.3035 -201.3399 30236.8273 -298.3035 -201.3399
ENERGY: 1100000 0.0000 0.0000 0.0000 0.0000 -10976.7648 1522.2074 0.0000 0.0000 1752.2646 -7702.2928 296.2969 -9454.5574 -7698.1810 299.7853 442.3354 521.7360 30548.0381 2.9248 3.0022
ENERGY: 1300000 0.0000 0.0000 0.0000 0.0000 -11014.1280 1555.9166 0.0000 0.0000 1794.8241 -7663.3874 303.4935 -9458.2114 -7661.5026 300.5973 613.7591 673.8678 30612.4222 2.5809 2.8048
ENERGY: 1500000 0.0000 0.0000 0.0000 0.0000 -11025.5215 1517.0913 0.0000 0.0000 1751.8375 -7756.5926 296.2247 -9508.4301 -7753.7045 300.1944 215.3638 339.1403 30426.7717 2.9496 2.9496
ENERGY: 1700000 0.0000 0.0000 0.0000 0.0000 -10842.8395 1459.3163 0.0000 0.0000 1802.3166 -7581.2066 304.7604 -9383.5232 -7578.5564 300.3013 211.6900 326.0037 30433.6620 1.3966 1.4755
ENERGY: 1900000 0.0000 0.0000 0.0000 0.0000 -10835.0184 1423.5769 0.0000 0.0000 1741.6461 -7669.7953 294.5014 -9411.4415 -7665.1241 299.9351 -357.8596 -233.5042 30747.7957 3.6987 3.7680
TCL: Exiting due to exit command.
