Info: SIMULATION PARAMETERS:
Info: TIMESTEP               2
Info: NUMBER OF STEPS        0
Info: STEPS PER CYCLE        10
Info: PERIODIC CELL BASIS 1  37.435 0 0
Info: PERIODIC CELL BASIS 2  0 35.411 0
Info: PERIODIC CELL BASIS 3  0 0 31.561
Info: PERIODIC CELL CENTER   0 0 0
Info: WRAPPING WATERS AROUND PERIODIC BOUNDARIES ON OUTPUT.
Info: WRAPPING ALL CLUSTERS AROUND PERIODIC BOUNDARIES ON OUTPUT.
Info: FIRST LDB TIMESTEP     50
Info: LAST LDB TIMESTEP     -1
Info: HOM BACKGROUND SCALING 1
Info: PME BACKGROUND SCALING 1
Info: MIN ATOMS PER PATCH    40
Info: EMPTY PATCH LOAD       40 ATOMS
Info: INITIAL TEMPERATURE    300
Info: CENTER OF MASS MOVING INITIALLY? NO
Info: DIELECTRIC             1
Info: EXCLUDE                SCALED ONE-FOUR
Info: 1-4 ELECTROSTATICS SCALED BY 0.833333
Info: MODIFIED 1-4 VDW PARAMETERS WILL BE USED
Info: DCD FILENAME           mobley_547634_equil.dcd
Info: DCD FREQUENCY          100000
Info: DCD FIRST STEP         100000
Info: DCD FILE WILL CONTAIN UNIT CELL DATA
Info: XST FILENAME           mobley_547634_equil.xst
Info: XST FREQUENCY          100000
Info: NO VELOCITY DCD OUTPUT
Info: NO FORCE DCD OUTPUT
Info: OUTPUT FILENAME        mobley_547634_equil
Info: BINARY OUTPUT FILES WILL BE USED
Info: RESTART FILENAME       mobley_547634_equil.restart
Info: RESTART FREQUENCY      100000
Info: BINARY RESTART FILES WILL BE USED
Info: CUTOFF                 9
Info: PAIRLIST DISTANCE      11
Info: PAIRLIST SHRINK RATE   0.01
Info: PAIRLIST GROW RATE     0.01
Info: PAIRLIST TRIGGER       0.3
Info: PAIRLISTS PER CYCLE    2
Info: PAIRLISTS ENABLED
Info: MARGIN                 8
Info: HYDROGEN GROUP CUTOFF  2.5
Info: PATCH DIMENSION        21.5
Info: ENERGY OUTPUT STEPS    100000
Info: ENERGY EVALUATION STEPS    100000
Info: OUTPUT ENERGY PRECISION 4
Info: CROSSTERM ENERGY INCLUDED IN DIHEDRAL
Info: TIMING OUTPUT STEPS    1000000
Info: PRESSURE OUTPUT STEPS  100000
Info: FIXED ATOMS ACTIVE
Info: LANGEVIN DYNAMICS ACTIVE
Info: LANGEVIN TEMPERATURE   30
Info: LANGEVIN USING BBK INTEGRATOR
Info: LANGEVIN DAMPING COEFFICIENT IS 1 INVERSE PS
Info: LANGEVIN DYNAMICS APPLIED TO HYDROGENS
Info: LANGEVIN PISTON PRESSURE CONTROL ACTIVE
Info:        TARGET PRESSURE IS 1.01325 BAR
Info:     OSCILLATION PERIOD IS 50 FS
Info:             DECAY TIME IS 25 FS
Info:     PISTON TEMPERATURE IS 300 K
Info:       PRESSURE CONTROL IS GROUP-BASED
Info:    INITIAL STRAIN RATE IS 0 0 0
Info:       CELL FLUCTUATION IS ISOTROPIC
Info: PARTICLE MESH EWALD (PME) ACTIVE
Info: PME TOLERANCE               1e-06
Info: PME EWALD COEFFICIENT       0.348832
Info: PME INTERPOLATION ORDER     4
Info: PME GRID DIMENSIONS         40 36 32
Info: PME MAXIMUM GRID SPACING    1
Info: FULL ELECTROSTATIC EVALUATION FREQUENCY      2
Info: USING VERLET I (r-RESPA) MTS SCHEME.
Info: C1 SPLITTING OF LONG RANGE ELECTROSTATICS
Info: PLACING ATOMS IN PATCHES BY HYDROGEN GROUPS
Info: RIGID BONDS TO HYDROGEN : ALL
Info:         ERROR TOLERANCE : 1e-08
Info:          MAX ITERATIONS : 100
Info: RIGID WATER USING SETTLE ALGORITHM
Info: RANDOM NUMBER SEED     1743765040
Info: USE HYDROGEN BONDS?    NO
Info: Using AMBER format force field!
Info: AMBER PARM FILE        mobley_547634.prmtop
Info: COORDINATE PDB         mobley_547634.pdb
Info: Exclusions will be read from PARM file!
Info: SCNB (VDW SCALING)     2
Info: USING ARITHMETIC MEAN TO COMBINE L-J SIGMA PARAMETERS
Info: BINARY COORDINATES     mobley_547634_min.coor
Info: SUMMARY OF PARAMETERS:
Info: 6 BONDS
Info: 5 ANGLES
Info:   5 HARMONIC
Info:   0 COSINE-BASED
Info: 3 DIHEDRAL
Info: 0 IMPROPER
Info: 0 CROSSTERM
Info: 0 VDW
Info: 21 VDW_PAIRS
Info: 0 NBTHOLE_PAIRS
Info: STRUCTURE SUMMARY:
Info: 2919 ATOMS
Info: 2920 BONDS
Info: 42 ANGLES
Info: 66 DIHEDRALS
Info: 0 IMPROPERS
Info: 0 CROSSTERMS
Info: 3012 EXCLUSIONS
Info: 24 FIXED ATOMS
Info: 2907 RIGID BONDS
Info: 12 RIGID BONDS BETWEEN FIXED ATOMS
Info: 5790 DEGREES OF FREEDOM
Info: 977 HYDROGEN GROUPS
Info: 4 ATOMS IN LARGEST HYDROGEN GROUP
Info: 977 MIGRATION GROUPS
Info: 4 ATOMS IN LARGEST MIGRATION GROUP
Info: 12 HYDROGEN GROUPS WITH ALL ATOMS FIXED
Info: TOTAL MASS = 17541.7 amu
Info: TOTAL CHARGE = -0.000100054 e
Info: MASS DENSITY = 0.696247 g/cm^3
Info: ATOM DENSITY = 0.0697698 atoms/A^3
Info: ADDED 0 IMPLICIT EXCLUSIONS
Info: NONBONDED TABLE R-SQUARED SPACING: 0.0625
Info: NONBONDED TABLE SIZE: 705 POINTS
Info: REMOVING COM VELOCITY -0.0607835 0.0151344 -0.0887925
TCL: Running for 100000 steps
ETITLE: TS BOND ANGLE DIHED IMPRP ELECT VDW BOUNDARY MISC KINETIC TOTAL TEMP POTENTIAL TOTAL3 TEMPAVG PRESSURE GPRESSURE VOLUME PRESSAVG GPRESSAVG
ENERGY: 0 0.0000 0.0000 0.0000 0.0000 -13486.4755 2351.4098 0.0000 0.0000 1686.7158 -9448.3499 293.1931 -11135.0657 -9448.0242 293.1931 142.9653 169.2689 41837.6020 142.9653 169.2689
ENERGY: 100000 0.0000 0.0000 0.0000 0.0000 -14067.7489 2477.3756 0.0000 0.0000 175.0800 -11415.2933 30.4333 -11590.3733 -11414.6479 30.9089 241.1433 295.2364 28791.0013 4.6884 4.6668
TCL: Running 100000 steps at 60 kelvin.
TCL: Setting parameter langevinTemp to 60
TCL: Running for 100000 steps
ETITLE: TS BOND ANGLE DIHED IMPRP ELECT VDW BOUNDARY MISC KINETIC TOTAL TEMP POTENTIAL TOTAL3 TEMPAVG PRESSURE GPRESSURE VOLUME PRESSAVG GPRESSAVG
ENERGY: 100000 0.0000 0.0000 0.0000 0.0000 -14067.7489 2477.3756 0.0000 0.0000 174.9950 -11415.3783 30.4185 -11590.3733 -11415.0617 30.4185 248.1346 295.5934 28791.0013 248.1346 295.5934
ENERGY: 200000 0.0000 0.0000 0.0000 0.0000 -13978.3939 2502.3921 0.0000 0.0000 337.8915 -11138.1103 58.7339 -11476.0018 -11137.3186 59.8244 900.2589 944.2137 28770.5922 4.1035 4.1325
TCL: Running 100000 steps at 90 kelvin.
TCL: Setting parameter langevinTemp to 90
TCL: Running for 100000 steps
ETITLE: TS BOND ANGLE DIHED IMPRP ELECT VDW BOUNDARY MISC KINETIC TOTAL TEMP POTENTIAL TOTAL3 TEMPAVG PRESSURE GPRESSURE VOLUME PRESSAVG GPRESSAVG
ENERGY: 200000 0.0000 0.0000 0.0000 0.0000 -13978.3939 2502.3921 0.0000 0.0000 337.7247 -11138.2772 58.7049 -11476.0018 -11137.5043 58.7049 898.8830 943.8725 28770.5922 898.8830 943.8725
ENERGY: 300000 0.0000 0.0000 0.0000 0.0000 -13725.9192 2318.9762 0.0000 0.0000 543.5018 -10863.4412 94.4741 -11406.9430 -10861.6877 90.0033 -245.0851 -218.2693 28696.0340 4.3042 4.3296
TCL: Running 100000 steps at 120 kelvin.
TCL: Setting parameter langevinTemp to 120
TCL: Running for 100000 steps
ETITLE: TS BOND ANGLE DIHED IMPRP ELECT VDW BOUNDARY MISC KINETIC TOTAL TEMP POTENTIAL TOTAL3 TEMPAVG PRESSURE GPRESSURE VOLUME PRESSAVG GPRESSAVG
ENERGY: 300000 0.0000 0.0000 0.0000 0.0000 -13725.9192 2318.9762 0.0000 0.0000 543.2530 -10863.6899 94.4309 -11406.9430 -10862.6853 94.4309 -267.3709 -217.8796 28696.0340 -267.3709 -217.8796
ENERGY: 400000 0.0000 0.0000 0.0000 0.0000 -13581.3102 2280.8762 0.0000 0.0000 682.9732 -10617.4609 118.7177 -11300.4341 -10616.3338 119.9340 -194.7413 -162.5689 28675.7456 4.6081 4.5104
TCL: Running 100000 steps at 150 kelvin.
TCL: Setting parameter langevinTemp to 150
TCL: Running for 100000 steps
ETITLE: TS BOND ANGLE DIHED IMPRP ELECT VDW BOUNDARY MISC KINETIC TOTAL TEMP POTENTIAL TOTAL3 TEMPAVG PRESSURE GPRESSURE VOLUME PRESSAVG GPRESSAVG
ENERGY: 400000 0.0000 0.0000 0.0000 0.0000 -13581.3102 2280.8762 0.0000 0.0000 682.6307 -10617.8034 118.6582 -11300.4341 -10616.3498 118.6582 -212.0067 -162.6383 28675.7456 -212.0067 -162.6383
ENERGY: 500000 0.0000 0.0000 0.0000 0.0000 -13377.0902 2246.1981 0.0000 0.0000 866.6426 -10264.2496 150.6440 -11130.8922 -10263.6016 149.7503 390.1155 400.1269 28451.9971 3.5645 3.5947
TCL: Running 100000 steps at 180 kelvin.
TCL: Setting parameter langevinTemp to 180
TCL: Running for 100000 steps
ETITLE: TS BOND ANGLE DIHED IMPRP ELECT VDW BOUNDARY MISC KINETIC TOTAL TEMP POTENTIAL TOTAL3 TEMPAVG PRESSURE GPRESSURE VOLUME PRESSAVG GPRESSAVG
ENERGY: 500000 0.0000 0.0000 0.0000 0.0000 -13377.0902 2246.1981 0.0000 0.0000 866.2015 -10264.6907 150.5673 -11130.8922 -10263.0535 150.5673 361.7522 399.0662 28451.9971 361.7522 399.0662
ENERGY: 600000 0.0000 0.0000 0.0000 0.0000 -12903.3114 2065.8665 0.0000 0.0000 1030.0457 -9807.3992 179.0475 -10837.4449 -9803.3499 179.4282 -54.7598 -6.2917 28543.0927 4.0495 4.0727
TCL: Running 100000 steps at 210 kelvin.
TCL: Setting parameter langevinTemp to 210
TCL: Running for 100000 steps
ETITLE: TS BOND ANGLE DIHED IMPRP ELECT VDW BOUNDARY MISC KINETIC TOTAL TEMP POTENTIAL TOTAL3 TEMPAVG PRESSURE GPRESSURE VOLUME PRESSAVG GPRESSAVG
ENERGY: 600000 0.0000 0.0000 0.0000 0.0000 -12903.3114 2065.8665 0.0000 0.0000 1029.5327 -9807.9122 178.9584 -10837.4449 -9805.9882 178.9584 -62.2161 -4.2160 28543.0927 -62.2161 -4.2160
ENERGY: 700000 0.0000 0.0000 0.0000 0.0000 -12113.1875 1790.8419 0.0000 0.0000 1192.2479 -9130.0977 207.2423 -10322.3456 -9128.3627 210.0130 -488.7573 -413.4672 28743.2603 3.7893 3.6821
TCL: Running 100000 steps at 240 kelvin.
TCL: Setting parameter langevinTemp to 240
TCL: Running for 100000 steps
ETITLE: TS BOND ANGLE DIHED IMPRP ELECT VDW BOUNDARY MISC KINETIC TOTAL TEMP POTENTIAL TOTAL3 TEMPAVG PRESSURE GPRESSURE VOLUME PRESSAVG GPRESSAVG
ENERGY: 700000 0.0000 0.0000 0.0000 0.0000 -12113.1875 1790.8419 0.0000 0.0000 1191.6240 -9130.7216 207.1338 -10322.3456 -9128.6688 207.1338 -488.5508 -413.6760 28743.2603 -488.5508 -413.6760
ENERGY: 800000 0.0000 0.0000 0.0000 0.0000 -11572.0654 1648.0694 0.0000 0.0000 1379.7615 -8544.2345 239.8368 -9923.9960 -8540.9613 239.5245 -154.4627 -148.2882 28792.0233 1.7469 1.6761
TCL: Running 100000 steps at 270 kelvin.
TCL: Setting parameter langevinTemp to 270
TCL: Running for 100000 steps
ETITLE: TS BOND ANGLE DIHED IMPRP ELECT VDW BOUNDARY MISC KINETIC TOTAL TEMP POTENTIAL TOTAL3 TEMPAVG PRESSURE GPRESSURE VOLUME PRESSAVG GPRESSAVG
ENERGY: 800000 0.0000 0.0000 0.0000 0.0000 -11572.0654 1648.0694 0.0000 0.0000 1379.0701 -8544.9259 239.7166 -9923.9960 -8542.8827 239.7166 -220.0458 -147.6752 28792.0233 -220.0458 -147.6752
ENERGY: 900000 0.0000 0.0000 0.0000 0.0000 -11075.8034 1539.2391 0.0000 0.0000 1546.6848 -7989.8796 268.8522 -9536.5644 -7986.3496 270.0624 72.8098 206.7776 29153.4891 3.0538 2.9634
TCL: Running 1000000 steps at 300 kelvin.
TCL: Setting parameter langevinTemp to 300
TCL: Running for 1000000 steps
ETITLE: TS BOND ANGLE DIHED IMPRP ELECT VDW BOUNDARY MISC KINETIC TOTAL TEMP POTENTIAL TOTAL3 TEMPAVG PRESSURE GPRESSURE VOLUME PRESSAVG GPRESSAVG
ENERGY: 900000 0.0000 0.0000 0.0000 0.0000 -11075.8034 1539.2391 0.0000 0.0000 1545.9195 -7990.6449 268.7192 -9536.5644 -7989.0420 268.7192 119.7563 208.9960 29153.4891 119.7563 208.9960
ENERGY: 1100000 0.0000 0.0000 0.0000 0.0000 -10613.0317 1426.6108 0.0000 0.0000 1734.0141 -7452.4068 301.4147 -9186.4209 -7449.2435 300.1519 -31.6082 64.1824 30089.3631 3.8767 3.8236
ENERGY: 1300000 0.0000 0.0000 0.0000 0.0000 -10530.9884 1369.1098 0.0000 0.0000 1695.4560 -7466.4226 294.7124 -9161.8786 -7462.7149 300.0886 -427.1644 -380.6466 30512.7992 2.5692 2.5444
ENERGY: 1500000 0.0000 0.0000 0.0000 0.0000 -10512.8057 1372.1204 0.0000 0.0000 1712.1797 -7428.5055 297.6194 -9140.6853 -7426.2425 299.8112 -187.4728 -176.9001 29838.5937 3.8046 3.8308
ENERGY: 1700000 0.0000 0.0000 0.0000 0.0000 -10581.9450 1417.2782 0.0000 0.0000 1794.4061 -7370.2607 311.9123 -9164.6668 -7365.0982 300.0813 -50.9967 63.8900 30013.7594 3.2093 3.0354
ENERGY: 1900000 0.0000 0.0000 0.0000 0.0000 -10532.4891 1389.8860 0.0000 0.0000 1744.2370 -7398.3662 303.1917 -9142.6032 -7395.8769 300.7522 -279.2713 -275.2118 30491.0039 3.1016 3.1331
TCL: Exiting due to exit command.
