Info: SIMULATION PARAMETERS:
Info: TIMESTEP               2
Info: NUMBER OF STEPS        0
Info: STEPS PER CYCLE        10
Info: PERIODIC CELL BASIS 1  37.435 0 0
Info: PERIODIC CELL BASIS 2  0 35.847 0
Info: PERIODIC CELL BASIS 3  0 0 31.855
Info: PERIODIC CELL CENTER   0 0 0
Info: WRAPPING WATERS AROUND PERIODIC BOUNDARIES ON OUTPUT.
Info: WRAPPING ALL CLUSTERS AROUND PERIODIC BOUNDARIES ON OUTPUT.
Info: FIRST LDB TIMESTEP     50
Info: LAST LDB TIMESTEP     -1
Info: HOM BACKGROUND SCALING 1
Info: PME BACKGROUND SCALING 1
Info: MIN ATOMS PER PATCH    40
Info: EMPTY PATCH LOAD       40 ATOMS
Info: INITIAL TEMPERATURE    300
Info: CENTER OF MASS MOVING INITIALLY? NO
Info: DIELECTRIC             1
Info: EXCLUDE                SCALED ONE-FOUR
Info: 1-4 ELECTROSTATICS SCALED BY 0.833333
Info: MODIFIED 1-4 VDW PARAMETERS WILL BE USED
Info: DCD FILENAME           mobley_5072416_equil.dcd
Info: DCD FREQUENCY          100000
Info: DCD FIRST STEP         100000
Info: DCD FILE WILL CONTAIN UNIT CELL DATA
Info: XST FILENAME           mobley_5072416_equil.xst
Info: XST FREQUENCY          100000
Info: NO VELOCITY DCD OUTPUT
Info: NO FORCE DCD OUTPUT
Info: OUTPUT FILENAME        mobley_5072416_equil
Info: BINARY OUTPUT FILES WILL BE USED
Info: RESTART FILENAME       mobley_5072416_equil.restart
Info: RESTART FREQUENCY      100000
Info: BINARY RESTART FILES WILL BE USED
Info: CUTOFF                 9
Info: PAIRLIST DISTANCE      11
Info: PAIRLIST SHRINK RATE   0.01
Info: PAIRLIST GROW RATE     0.01
Info: PAIRLIST TRIGGER       0.3
Info: PAIRLISTS PER CYCLE    2
Info: PAIRLISTS ENABLED
Info: MARGIN                 8
Info: HYDROGEN GROUP CUTOFF  2.5
Info: PATCH DIMENSION        21.5
Info: ENERGY OUTPUT STEPS    100000
Info: ENERGY EVALUATION STEPS    100000
Info: OUTPUT ENERGY PRECISION 4
Info: CROSSTERM ENERGY INCLUDED IN DIHEDRAL
Info: TIMING OUTPUT STEPS    1000000
Info: PRESSURE OUTPUT STEPS  100000
Info: FIXED ATOMS ACTIVE
Info: LANGEVIN DYNAMICS ACTIVE
Info: LANGEVIN TEMPERATURE   30
Info: LANGEVIN USING BBK INTEGRATOR
Info: LANGEVIN DAMPING COEFFICIENT IS 1 INVERSE PS
Info: LANGEVIN DYNAMICS APPLIED TO HYDROGENS
Info: LANGEVIN PISTON PRESSURE CONTROL ACTIVE
Info:        TARGET PRESSURE IS 1.01325 BAR
Info:     OSCILLATION PERIOD IS 50 FS
Info:             DECAY TIME IS 25 FS
Info:     PISTON TEMPERATURE IS 300 K
Info:       PRESSURE CONTROL IS GROUP-BASED
Info:    INITIAL STRAIN RATE IS 0 0 0
Info:       CELL FLUCTUATION IS ISOTROPIC
Info: PARTICLE MESH EWALD (PME) ACTIVE
Info: PME TOLERANCE               1e-06
Info: PME EWALD COEFFICIENT       0.348832
Info: PME INTERPOLATION ORDER     4
Info: PME GRID DIMENSIONS         40 36 32
Info: PME MAXIMUM GRID SPACING    1
Info: FULL ELECTROSTATIC EVALUATION FREQUENCY      2
Info: USING VERLET I (r-RESPA) MTS SCHEME.
Info: C1 SPLITTING OF LONG RANGE ELECTROSTATICS
Info: PLACING ATOMS IN PATCHES BY HYDROGEN GROUPS
Info: RIGID BONDS TO HYDROGEN : ALL
Info:         ERROR TOLERANCE : 1e-08
Info:          MAX ITERATIONS : 100
Info: RIGID WATER USING SETTLE ALGORITHM
Info: RANDOM NUMBER SEED     1744092768
Info: USE HYDROGEN BONDS?    NO
Info: Using AMBER format force field!
Info: AMBER PARM FILE        mobley_5072416.prmtop
Info: COORDINATE PDB         mobley_5072416.pdb
Info: Exclusions will be read from PARM file!
Info: SCNB (VDW SCALING)     2
Info: USING ARITHMETIC MEAN TO COMBINE L-J SIGMA PARAMETERS
Info: BINARY COORDINATES     mobley_5072416_min.coor
Info: SUMMARY OF PARAMETERS:
Info: 9 BONDS
Info: 9 ANGLES
Info:   9 HARMONIC
Info:   0 COSINE-BASED
Info: 5 DIHEDRAL
Info: 0 IMPROPER
Info: 0 CROSSTERM
Info: 0 VDW
Info: 45 VDW_PAIRS
Info: 0 NBTHOLE_PAIRS
Info: STRUCTURE SUMMARY:
Info: 2961 ATOMS
Info: 2961 BONDS
Info: 28 ANGLES
Info: 40 DIHEDRALS
Info: 0 IMPROPERS
Info: 0 CROSSTERMS
Info: 3019 EXCLUSIONS
Info: 18 FIXED ATOMS
Info: 2952 RIGID BONDS
Info: 9 RIGID BONDS BETWEEN FIXED ATOMS
Info: 5886 DEGREES OF FREEDOM
Info: 990 HYDROGEN GROUPS
Info: 4 ATOMS IN LARGEST HYDROGEN GROUP
Info: 990 MIGRATION GROUPS
Info: 4 ATOMS IN LARGEST MIGRATION GROUP
Info: 9 HYDROGEN GROUPS WITH ALL ATOMS FIXED
Info: TOTAL MASS = 17796.8 amu
Info: TOTAL CHARGE = 4.65661e-08 e
Info: MASS DENSITY = 0.691344 g/cm^3
Info: ATOM DENSITY = 0.0692676 atoms/A^3
Info: ADDED 0 IMPLICIT EXCLUSIONS
Info: NONBONDED TABLE R-SQUARED SPACING: 0.0625
Info: NONBONDED TABLE SIZE: 705 POINTS
Info: REMOVING COM VELOCITY 0.00990938 -0.147148 -0.0908999
TCL: Running for 100000 steps
ETITLE: TS BOND ANGLE DIHED IMPRP ELECT VDW BOUNDARY MISC KINETIC TOTAL TEMP POTENTIAL TOTAL3 TEMPAVG PRESSURE GPRESSURE VOLUME PRESSAVG GPRESSAVG
ENERGY: 0 0.0000 0.0000 0.0000 0.0000 -13857.5900 2384.9281 0.0000 0.0000 1726.5467 -9746.1153 295.2218 -11472.6620 -9745.7993 295.2218 157.6190 184.9622 42747.2580 157.6190 184.9622
ENERGY: 100000 0.0000 0.0000 0.0000 0.0000 -14298.1929 2456.1712 0.0000 0.0000 175.2452 -11666.7765 29.9651 -11842.0217 -11666.2820 30.7768 -90.7003 -29.4393 28746.2500 4.6458 4.7467
TCL: Running 100000 steps at 60 kelvin.
TCL: Setting parameter langevinTemp to 60
TCL: Running for 100000 steps
ETITLE: TS BOND ANGLE DIHED IMPRP ELECT VDW BOUNDARY MISC KINETIC TOTAL TEMP POTENTIAL TOTAL3 TEMPAVG PRESSURE GPRESSURE VOLUME PRESSAVG GPRESSAVG
ENERGY: 100000 0.0000 0.0000 0.0000 0.0000 -14298.1929 2456.1712 0.0000 0.0000 175.1568 -11666.8649 29.9500 -11842.0217 -11666.4108 29.9500 -89.1791 -29.4467 28746.2500 -89.1791 -29.4467
ENERGY: 200000 0.0000 0.0000 0.0000 0.0000 -14313.3387 2521.7691 0.0000 0.0000 349.9525 -11441.6170 59.8383 -11791.5695 -11440.6972 59.8943 1012.1341 1080.1737 28223.3401 3.0678 3.0529
TCL: Running 100000 steps at 90 kelvin.
TCL: Setting parameter langevinTemp to 90
TCL: Running for 100000 steps
ETITLE: TS BOND ANGLE DIHED IMPRP ELECT VDW BOUNDARY MISC KINETIC TOTAL TEMP POTENTIAL TOTAL3 TEMPAVG PRESSURE GPRESSURE VOLUME PRESSAVG GPRESSAVG
ENERGY: 200000 0.0000 0.0000 0.0000 0.0000 -14313.3387 2521.7691 0.0000 0.0000 349.7832 -11441.7863 59.8094 -11791.5695 -11441.1656 59.8094 1008.2274 1080.2517 28223.3401 1008.2274 1080.2517
ENERGY: 300000 0.0000 0.0000 0.0000 0.0000 -13953.0553 2269.5050 0.0000 0.0000 523.0768 -11160.4735 89.4408 -11683.5503 -11158.4070 89.8917 -811.5837 -759.3271 28525.0847 3.9700 3.9326
TCL: Running 100000 steps at 120 kelvin.
TCL: Setting parameter langevinTemp to 120
TCL: Running for 100000 steps
ETITLE: TS BOND ANGLE DIHED IMPRP ELECT VDW BOUNDARY MISC KINETIC TOTAL TEMP POTENTIAL TOTAL3 TEMPAVG PRESSURE GPRESSURE VOLUME PRESSAVG GPRESSAVG
ENERGY: 300000 0.0000 0.0000 0.0000 0.0000 -13953.0553 2269.5050 0.0000 0.0000 522.8192 -11160.7311 89.3967 -11683.5503 -11159.5646 89.3967 -821.7121 -759.2309 28525.0847 -821.7121 -759.2309
ENERGY: 400000 0.0000 0.0000 0.0000 0.0000 -13905.3043 2346.6381 0.0000 0.0000 717.9134 -10840.7527 122.7559 -11558.6662 -10838.6518 119.6588 427.9663 483.3063 28378.4887 3.7715 3.8150
TCL: Running 100000 steps at 150 kelvin.
TCL: Setting parameter langevinTemp to 150
TCL: Running for 100000 steps
ETITLE: TS BOND ANGLE DIHED IMPRP ELECT VDW BOUNDARY MISC KINETIC TOTAL TEMP POTENTIAL TOTAL3 TEMPAVG PRESSURE GPRESSURE VOLUME PRESSAVG GPRESSAVG
ENERGY: 400000 0.0000 0.0000 0.0000 0.0000 -13905.3043 2346.6381 0.0000 0.0000 717.5836 -10841.0825 122.6995 -11558.6662 -10839.6526 122.6995 430.1512 483.2359 28378.4887 430.1512 483.2359
ENERGY: 500000 0.0000 0.0000 0.0000 0.0000 -13513.2426 2115.4656 0.0000 0.0000 872.8786 -10524.8984 149.2533 -11397.7770 -10521.9476 150.1770 -1239.9155 -1157.3408 29131.1370 3.9284 3.9657
TCL: Running 100000 steps at 180 kelvin.
TCL: Setting parameter langevinTemp to 180
TCL: Running for 100000 steps
ETITLE: TS BOND ANGLE DIHED IMPRP ELECT VDW BOUNDARY MISC KINETIC TOTAL TEMP POTENTIAL TOTAL3 TEMPAVG PRESSURE GPRESSURE VOLUME PRESSAVG GPRESSAVG
ENERGY: 500000 0.0000 0.0000 0.0000 0.0000 -13513.2426 2115.4656 0.0000 0.0000 872.4436 -10525.3334 149.1789 -11397.7770 -10523.8449 149.1789 -1226.4625 -1156.7260 29131.1370 -1226.4625 -1156.7260
ENERGY: 600000 0.0000 0.0000 0.0000 0.0000 -13335.0126 2286.5104 0.0000 0.0000 1058.6574 -9989.8448 181.0196 -11048.5022 -9987.6346 179.5656 1584.7068 1622.9301 28772.1900 4.4778 4.5531
TCL: Running 100000 steps at 210 kelvin.
TCL: Setting parameter langevinTemp to 210
TCL: Running for 100000 steps
ETITLE: TS BOND ANGLE DIHED IMPRP ELECT VDW BOUNDARY MISC KINETIC TOTAL TEMP POTENTIAL TOTAL3 TEMPAVG PRESSURE GPRESSURE VOLUME PRESSAVG GPRESSAVG
ENERGY: 600000 0.0000 0.0000 0.0000 0.0000 -13335.0126 2286.5104 0.0000 0.0000 1058.1453 -9990.3569 180.9320 -11048.5022 -9989.1298 180.9320 1563.7518 1623.8300 28772.1900 1563.7518 1623.8300
ENERGY: 700000 0.0000 0.0000 0.0000 0.0000 -12505.2302 1844.7519 0.0000 0.0000 1226.2663 -9434.2121 209.6790 -10660.4783 -9432.6609 209.7656 -439.4289 -390.6670 28753.3862 4.4219 4.5512
TCL: Running 100000 steps at 240 kelvin.
TCL: Setting parameter langevinTemp to 240
TCL: Running for 100000 steps
ETITLE: TS BOND ANGLE DIHED IMPRP ELECT VDW BOUNDARY MISC KINETIC TOTAL TEMP POTENTIAL TOTAL3 TEMPAVG PRESSURE GPRESSURE VOLUME PRESSAVG GPRESSAVG
ENERGY: 700000 0.0000 0.0000 0.0000 0.0000 -12505.2302 1844.7519 0.0000 0.0000 1225.6516 -9434.8267 209.5739 -10660.4783 -9432.3238 209.5739 -465.2233 -392.3431 28753.3862 -465.2233 -392.3431
ENERGY: 800000 0.0000 0.0000 0.0000 0.0000 -12060.9041 1824.4144 0.0000 0.0000 1386.0137 -8850.4760 236.9942 -10236.4897 -8846.6712 239.6403 617.0914 733.5130 29255.0783 3.4823 3.6363
TCL: Running 100000 steps at 270 kelvin.
TCL: Setting parameter langevinTemp to 270
TCL: Running for 100000 steps
ETITLE: TS BOND ANGLE DIHED IMPRP ELECT VDW BOUNDARY MISC KINETIC TOTAL TEMP POTENTIAL TOTAL3 TEMPAVG PRESSURE GPRESSURE VOLUME PRESSAVG GPRESSAVG
ENERGY: 800000 0.0000 0.0000 0.0000 0.0000 -12060.9041 1824.4144 0.0000 0.0000 1385.2888 -8851.2009 236.8702 -10236.4897 -8849.1225 236.8702 657.6341 735.7341 29255.0783 657.6341 735.7341
ENERGY: 900000 0.0000 0.0000 0.0000 0.0000 -11233.6427 1546.5488 0.0000 0.0000 1548.3927 -8138.7012 264.7593 -9687.0939 -8136.9560 269.5865 -147.3945 -100.6855 30202.1099 4.4585 4.4106
TCL: Running 1000000 steps at 300 kelvin.
TCL: Setting parameter langevinTemp to 300
TCL: Running for 1000000 steps
ETITLE: TS BOND ANGLE DIHED IMPRP ELECT VDW BOUNDARY MISC KINETIC TOTAL TEMP POTENTIAL TOTAL3 TEMPAVG PRESSURE GPRESSURE VOLUME PRESSAVG GPRESSAVG
ENERGY: 900000 0.0000 0.0000 0.0000 0.0000 -11233.6427 1546.5488 0.0000 0.0000 1547.6507 -8139.4433 264.6324 -9687.0939 -8136.7798 264.6324 -183.9729 -103.4833 30202.1099 -183.9729 -103.4833
ENERGY: 1100000 0.0000 0.0000 0.0000 0.0000 -10715.0009 1383.0428 0.0000 0.0000 1793.2460 -7538.7121 306.6267 -9331.9581 -7536.2283 301.1821 -637.3837 -518.2173 31134.1777 1.9915 2.0089
ENERGY: 1300000 0.0000 0.0000 0.0000 0.0000 -10905.6731 1520.6748 0.0000 0.0000 1740.2657 -7644.7327 297.5676 -9384.9984 -7642.2677 300.1281 603.5111 664.0727 30251.2074 1.9267 1.7719
ENERGY: 1500000 0.0000 0.0000 0.0000 0.0000 -10951.3894 1541.3183 0.0000 0.0000 1764.7117 -7645.3594 301.7477 -9410.0711 -7643.1051 300.3970 752.0006 839.6960 30252.0782 3.8566 3.7724
ENERGY: 1700000 0.0000 0.0000 0.0000 0.0000 -10811.1028 1409.8603 0.0000 0.0000 1753.3300 -7647.9125 299.8015 -9401.2425 -7646.4740 299.9571 -132.0035 -50.4565 30127.3625 3.5076 3.4728
ENERGY: 1900000 0.0000 0.0000 0.0000 0.0000 -10730.1385 1372.3797 0.0000 0.0000 1825.1686 -7532.5901 312.0852 -9357.7588 -7529.1244 300.5418 -257.8158 -140.2773 30131.8273 3.6598 3.6789
TCL: Exiting due to exit command.
