Info: SIMULATION PARAMETERS:
Info: TIMESTEP               2
Info: NUMBER OF STEPS        0
Info: STEPS PER CYCLE        10
Info: PERIODIC CELL BASIS 1  36.592 0 0
Info: PERIODIC CELL BASIS 2  0 36.762 0
Info: PERIODIC CELL BASIS 3  0 0 32.993
Info: PERIODIC CELL CENTER   0 0 0
Info: WRAPPING WATERS AROUND PERIODIC BOUNDARIES ON OUTPUT.
Info: WRAPPING ALL CLUSTERS AROUND PERIODIC BOUNDARIES ON OUTPUT.
Info: FIRST LDB TIMESTEP     50
Info: LAST LDB TIMESTEP     -1
Info: HOM BACKGROUND SCALING 1
Info: PME BACKGROUND SCALING 1
Info: MIN ATOMS PER PATCH    40
Info: EMPTY PATCH LOAD       40 ATOMS
Info: INITIAL TEMPERATURE    300
Info: CENTER OF MASS MOVING INITIALLY? NO
Info: DIELECTRIC             1
Info: EXCLUDE                SCALED ONE-FOUR
Info: 1-4 ELECTROSTATICS SCALED BY 0.833333
Info: MODIFIED 1-4 VDW PARAMETERS WILL BE USED
Info: DCD FILENAME           mobley_7200804_equil.dcd
Info: DCD FREQUENCY          100000
Info: DCD FIRST STEP         100000
Info: DCD FILE WILL CONTAIN UNIT CELL DATA
Info: XST FILENAME           mobley_7200804_equil.xst
Info: XST FREQUENCY          100000
Info: NO VELOCITY DCD OUTPUT
Info: NO FORCE DCD OUTPUT
Info: OUTPUT FILENAME        mobley_7200804_equil
Info: BINARY OUTPUT FILES WILL BE USED
Info: RESTART FILENAME       mobley_7200804_equil.restart
Info: RESTART FREQUENCY      100000
Info: BINARY RESTART FILES WILL BE USED
Info: CUTOFF                 9
Info: PAIRLIST DISTANCE      11
Info: PAIRLIST SHRINK RATE   0.01
Info: PAIRLIST GROW RATE     0.01
Info: PAIRLIST TRIGGER       0.3
Info: PAIRLISTS PER CYCLE    2
Info: PAIRLISTS ENABLED
Info: MARGIN                 8
Info: HYDROGEN GROUP CUTOFF  2.5
Info: PATCH DIMENSION        21.5
Info: ENERGY OUTPUT STEPS    100000
Info: ENERGY EVALUATION STEPS    100000
Info: OUTPUT ENERGY PRECISION 4
Info: CROSSTERM ENERGY INCLUDED IN DIHEDRAL
Info: TIMING OUTPUT STEPS    1000000
Info: PRESSURE OUTPUT STEPS  100000
Info: FIXED ATOMS ACTIVE
Info: LANGEVIN DYNAMICS ACTIVE
Info: LANGEVIN TEMPERATURE   30
Info: LANGEVIN USING BBK INTEGRATOR
Info: LANGEVIN DAMPING COEFFICIENT IS 1 INVERSE PS
Info: LANGEVIN DYNAMICS APPLIED TO HYDROGENS
Info: LANGEVIN PISTON PRESSURE CONTROL ACTIVE
Info:        TARGET PRESSURE IS 1.01325 BAR
Info:     OSCILLATION PERIOD IS 50 FS
Info:             DECAY TIME IS 25 FS
Info:     PISTON TEMPERATURE IS 300 K
Info:       PRESSURE CONTROL IS GROUP-BASED
Info:    INITIAL STRAIN RATE IS 0 0 0
Info:       CELL FLUCTUATION IS ISOTROPIC
Info: PARTICLE MESH EWALD (PME) ACTIVE
Info: PME TOLERANCE               1e-06
Info: PME EWALD COEFFICIENT       0.348832
Info: PME INTERPOLATION ORDER     4
Info: PME GRID DIMENSIONS         40 40 36
Info: PME MAXIMUM GRID SPACING    1
Info: FULL ELECTROSTATIC EVALUATION FREQUENCY      2
Info: USING VERLET I (r-RESPA) MTS SCHEME.
Info: C1 SPLITTING OF LONG RANGE ELECTROSTATICS
Info: PLACING ATOMS IN PATCHES BY HYDROGEN GROUPS
Info: RIGID BONDS TO HYDROGEN : ALL
Info:         ERROR TOLERANCE : 1e-08
Info:          MAX ITERATIONS : 100
Info: RIGID WATER USING SETTLE ALGORITHM
Info: RANDOM NUMBER SEED     1744676309
Info: USE HYDROGEN BONDS?    NO
Info: Using AMBER format force field!
Info: AMBER PARM FILE        mobley_7200804.prmtop
Info: COORDINATE PDB         mobley_7200804.pdb
Info: Exclusions will be read from PARM file!
Info: SCNB (VDW SCALING)     2
Info: USING ARITHMETIC MEAN TO COMBINE L-J SIGMA PARAMETERS
Info: BINARY COORDINATES     mobley_7200804_min.coor
Info: SUMMARY OF PARAMETERS:
Info: 7 BONDS
Info: 5 ANGLES
Info:   5 HARMONIC
Info:   0 COSINE-BASED
Info: 3 DIHEDRAL
Info: 0 IMPROPER
Info: 0 CROSSTERM
Info: 0 VDW
Info: 21 VDW_PAIRS
Info: 0 NBTHOLE_PAIRS
Info: STRUCTURE SUMMARY:
Info: 2941 ATOMS
Info: 2941 BONDS
Info: 19 ANGLES
Info: 32 DIHEDRALS
Info: 0 IMPROPERS
Info: 0 CROSSTERMS
Info: 2983 EXCLUSIONS
Info: 13 FIXED ATOMS
Info: 2933 RIGID BONDS
Info: 5 RIGID BONDS BETWEEN FIXED ATOMS
Info: 5856 DEGREES OF FREEDOM
Info: 984 HYDROGEN GROUPS
Info: 3 ATOMS IN LARGEST HYDROGEN GROUP
Info: 984 MIGRATION GROUPS
Info: 3 ATOMS IN LARGEST MIGRATION GROUP
Info: 8 HYDROGEN GROUPS WITH ALL ATOMS FIXED
Info: TOTAL MASS = 17695.7 amu
Info: TOTAL CHARGE = -0.000100017 e
Info: MASS DENSITY = 0.662095 g/cm^3
Info: ATOM DENSITY = 0.0662656 atoms/A^3
Info: ADDED 0 IMPLICIT EXCLUSIONS
Info: NONBONDED TABLE R-SQUARED SPACING: 0.0625
Info: NONBONDED TABLE SIZE: 705 POINTS
Info: REMOVING COM VELOCITY 0.135419 -0.0576118 -0.0329588
TCL: Running for 100000 steps
ETITLE: TS BOND ANGLE DIHED IMPRP ELECT VDW BOUNDARY MISC KINETIC TOTAL TEMP POTENTIAL TOTAL3 TEMPAVG PRESSURE GPRESSURE VOLUME PRESSAVG GPRESSAVG
ENERGY: 0 0.0000 0.0000 0.0000 0.0000 -13604.7622 2401.9148 0.0000 0.0000 1745.1506 -9457.6967 299.9316 -11202.8473 -9457.3715 299.9316 484.6994 522.0169 44382.0221 484.6994 522.0169
ENERGY: 100000 0.0000 0.0000 0.0000 0.0000 -14123.6402 2363.3126 0.0000 0.0000 171.1601 -11589.1675 29.4166 -11760.3277 -11588.8306 30.9232 -1061.8749 -1018.3677 28995.3936 5.3993 5.3877
TCL: Running 100000 steps at 60 kelvin.
TCL: Setting parameter langevinTemp to 60
TCL: Running for 100000 steps
ETITLE: TS BOND ANGLE DIHED IMPRP ELECT VDW BOUNDARY MISC KINETIC TOTAL TEMP POTENTIAL TOTAL3 TEMPAVG PRESSURE GPRESSURE VOLUME PRESSAVG GPRESSAVG
ENERGY: 100000 0.0000 0.0000 0.0000 0.0000 -14123.6402 2363.3126 0.0000 0.0000 171.0762 -11589.2515 29.4021 -11760.3277 -11588.8855 29.4021 -1079.6570 -1018.2542 28995.3936 -1079.6570 -1018.2542
ENERGY: 200000 0.0000 0.0000 0.0000 0.0000 -14097.8127 2403.8577 0.0000 0.0000 337.6165 -11356.3385 58.0247 -11693.9550 -11355.5050 59.8625 -442.7167 -386.6766 28668.6927 3.5122 3.5089
TCL: Running 100000 steps at 90 kelvin.
TCL: Setting parameter langevinTemp to 90
TCL: Running for 100000 steps
ETITLE: TS BOND ANGLE DIHED IMPRP ELECT VDW BOUNDARY MISC KINETIC TOTAL TEMP POTENTIAL TOTAL3 TEMPAVG PRESSURE GPRESSURE VOLUME PRESSAVG GPRESSAVG
ENERGY: 200000 0.0000 0.0000 0.0000 0.0000 -14097.8127 2403.8577 0.0000 0.0000 337.4438 -11356.5112 57.9950 -11693.9550 -11355.7236 57.9950 -441.2359 -386.7244 28668.6927 -441.2359 -386.7244
ENERGY: 300000 0.0000 0.0000 0.0000 0.0000 -14093.5670 2492.8167 0.0000 0.0000 523.0953 -11077.6550 89.9022 -11600.7503 -11076.6429 89.9886 816.2608 837.9715 28473.8710 4.9736 4.9440
TCL: Running 100000 steps at 120 kelvin.
TCL: Setting parameter langevinTemp to 120
TCL: Running for 100000 steps
ETITLE: TS BOND ANGLE DIHED IMPRP ELECT VDW BOUNDARY MISC KINETIC TOTAL TEMP POTENTIAL TOTAL3 TEMPAVG PRESSURE GPRESSURE VOLUME PRESSAVG GPRESSAVG
ENERGY: 300000 0.0000 0.0000 0.0000 0.0000 -14093.5670 2492.8167 0.0000 0.0000 522.8231 -11077.9272 89.8554 -11600.7503 -11076.9740 89.8554 800.8558 837.8406 28473.8710 800.8558 837.8406
ENERGY: 400000 0.0000 0.0000 0.0000 0.0000 -13724.9243 2242.7774 0.0000 0.0000 717.6957 -10764.4512 123.3473 -11482.1469 -10762.1935 119.9985 -742.5606 -726.2035 28716.0375 3.5823 3.5433
TCL: Running 100000 steps at 150 kelvin.
TCL: Setting parameter langevinTemp to 150
TCL: Running for 100000 steps
ETITLE: TS BOND ANGLE DIHED IMPRP ELECT VDW BOUNDARY MISC KINETIC TOTAL TEMP POTENTIAL TOTAL3 TEMPAVG PRESSURE GPRESSURE VOLUME PRESSAVG GPRESSAVG
ENERGY: 400000 0.0000 0.0000 0.0000 0.0000 -13724.9243 2242.7774 0.0000 0.0000 717.3425 -10764.8043 123.2866 -11482.1469 -10763.4337 123.2866 -773.6926 -725.6808 28716.0375 -773.6926 -725.6808
ENERGY: 500000 0.0000 0.0000 0.0000 0.0000 -13635.3223 2338.6841 0.0000 0.0000 874.9139 -10421.7242 150.3677 -11296.6382 -10419.0802 149.7083 589.6203 700.2948 28819.0594 3.3715 3.2954
TCL: Running 100000 steps at 180 kelvin.
TCL: Setting parameter langevinTemp to 180
TCL: Running for 100000 steps
ETITLE: TS BOND ANGLE DIHED IMPRP ELECT VDW BOUNDARY MISC KINETIC TOTAL TEMP POTENTIAL TOTAL3 TEMPAVG PRESSURE GPRESSURE VOLUME PRESSAVG GPRESSAVG
ENERGY: 500000 0.0000 0.0000 0.0000 0.0000 -13635.3223 2338.6841 0.0000 0.0000 874.4853 -10422.1529 150.2941 -11296.6382 -10420.8423 150.2941 645.2401 701.0645 28819.0594 645.2401 701.0645
ENERGY: 600000 0.0000 0.0000 0.0000 0.0000 -13239.5092 2203.3930 0.0000 0.0000 1056.8926 -9979.2236 181.6436 -11036.1162 -9977.0904 180.1532 656.0862 659.2471 28658.5342 5.1716 5.1244
TCL: Running 100000 steps at 210 kelvin.
TCL: Setting parameter langevinTemp to 210
TCL: Running for 100000 steps
ETITLE: TS BOND ANGLE DIHED IMPRP ELECT VDW BOUNDARY MISC KINETIC TOTAL TEMP POTENTIAL TOTAL3 TEMPAVG PRESSURE GPRESSURE VOLUME PRESSAVG GPRESSAVG
ENERGY: 600000 0.0000 0.0000 0.0000 0.0000 -13239.5092 2203.3930 0.0000 0.0000 1056.3966 -9979.7196 181.5584 -11036.1162 -9977.4714 181.5584 600.2291 659.6063 28658.5342 600.2291 659.6063
ENERGY: 700000 0.0000 0.0000 0.0000 0.0000 -12318.8678 1751.5053 0.0000 0.0000 1233.2136 -9334.1490 211.9472 -10567.3626 -9332.3273 209.5253 -1272.5838 -1180.8688 28780.0758 4.8130 4.8660
TCL: Running 100000 steps at 240 kelvin.
TCL: Setting parameter langevinTemp to 240
TCL: Running for 100000 steps
ETITLE: TS BOND ANGLE DIHED IMPRP ELECT VDW BOUNDARY MISC KINETIC TOTAL TEMP POTENTIAL TOTAL3 TEMPAVG PRESSURE GPRESSURE VOLUME PRESSAVG GPRESSAVG
ENERGY: 700000 0.0000 0.0000 0.0000 0.0000 -12318.8678 1751.5053 0.0000 0.0000 1232.5848 -9334.7777 211.8391 -10567.3626 -9332.1628 211.8391 -1269.4699 -1183.0034 28780.0758 -1269.4699 -1183.0034
ENERGY: 800000 0.0000 0.0000 0.0000 0.0000 -11755.9480 1714.2558 0.0000 0.0000 1408.4979 -8633.1943 242.0725 -10041.6922 -8630.1471 239.9506 170.6620 239.9914 28956.7312 3.0515 3.1415
TCL: Running 100000 steps at 270 kelvin.
TCL: Setting parameter langevinTemp to 270
TCL: Running for 100000 steps
ETITLE: TS BOND ANGLE DIHED IMPRP ELECT VDW BOUNDARY MISC KINETIC TOTAL TEMP POTENTIAL TOTAL3 TEMPAVG PRESSURE GPRESSURE VOLUME PRESSAVG GPRESSAVG
ENERGY: 800000 0.0000 0.0000 0.0000 0.0000 -11755.9480 1714.2558 0.0000 0.0000 1407.8253 -8633.8670 241.9569 -10041.6922 -8631.8789 241.9569 164.9982 239.5287 28956.7312 164.9982 239.5287
ENERGY: 900000 0.0000 0.0000 0.0000 0.0000 -11153.1227 1465.2665 0.0000 0.0000 1554.4644 -8133.3918 267.1592 -9687.8563 -8129.5985 270.3924 -699.3332 -554.7720 29301.1704 4.0052 4.1799
TCL: Running 1000000 steps at 300 kelvin.
TCL: Setting parameter langevinTemp to 300
TCL: Running for 1000000 steps
ETITLE: TS BOND ANGLE DIHED IMPRP ELECT VDW BOUNDARY MISC KINETIC TOTAL TEMP POTENTIAL TOTAL3 TEMPAVG PRESSURE GPRESSURE VOLUME PRESSAVG GPRESSAVG
ENERGY: 900000 0.0000 0.0000 0.0000 0.0000 -11153.1227 1465.2665 0.0000 0.0000 1553.6774 -8134.1789 267.0239 -9687.8563 -8131.5940 267.0239 -636.3352 -553.5443 29301.1704 -636.3352 -553.5443
ENERGY: 1100000 0.0000 0.0000 0.0000 0.0000 -10851.6123 1492.2851 0.0000 0.0000 1743.1236 -7616.2035 299.5832 -9359.3272 -7612.9350 300.8784 163.9766 261.4995 30015.1006 3.0005 2.9802
ENERGY: 1300000 0.0000 0.0000 0.0000 0.0000 -10772.5359 1483.3404 0.0000 0.0000 1816.2717 -7472.9238 312.1549 -9289.1955 -7469.4602 300.5286 469.4316 551.5865 30161.8206 4.2204 4.1161
ENERGY: 1500000 0.0000 0.0000 0.0000 0.0000 -10698.6170 1452.7596 0.0000 0.0000 1747.7873 -7498.0701 300.3848 -9245.8575 -7492.7407 300.5165 -12.1479 76.7624 30683.7561 3.0040 2.9988
ENERGY: 1700000 0.0000 0.0000 0.0000 0.0000 -10636.8963 1380.2888 0.0000 0.0000 1769.7994 -7486.8081 304.1679 -9256.6075 -7483.1688 300.2758 -437.1106 -346.7736 30488.1265 2.0815 1.9664
ENERGY: 1900000 0.0000 0.0000 0.0000 0.0000 -10774.3808 1466.8538 0.0000 0.0000 1706.3169 -7601.2101 293.2574 -9307.5270 -7596.2826 300.1205 -26.6227 61.3296 30535.8483 4.9920 4.9100
TCL: Exiting due to exit command.
