Info: SIMULATION PARAMETERS:
Info: TIMESTEP               2
Info: NUMBER OF STEPS        0
Info: STEPS PER CYCLE        10
Info: PERIODIC CELL BASIS 1  37.38 0 0
Info: PERIODIC CELL BASIS 2  0 34.26 0
Info: PERIODIC CELL BASIS 3  0 0 33.876
Info: PERIODIC CELL CENTER   0 0 0
Info: WRAPPING WATERS AROUND PERIODIC BOUNDARIES ON OUTPUT.
Info: WRAPPING ALL CLUSTERS AROUND PERIODIC BOUNDARIES ON OUTPUT.
Info: FIRST LDB TIMESTEP     50
Info: LAST LDB TIMESTEP     -1
Info: HOM BACKGROUND SCALING 1
Info: PME BACKGROUND SCALING 1
Info: MIN ATOMS PER PATCH    40
Info: EMPTY PATCH LOAD       40 ATOMS
Info: INITIAL TEMPERATURE    300
Info: CENTER OF MASS MOVING INITIALLY? NO
Info: DIELECTRIC             1
Info: EXCLUDE                SCALED ONE-FOUR
Info: 1-4 ELECTROSTATICS SCALED BY 0.833333
Info: MODIFIED 1-4 VDW PARAMETERS WILL BE USED
Info: DCD FILENAME           mobley_6981465_equil.dcd
Info: DCD FREQUENCY          100000
Info: DCD FIRST STEP         100000
Info: DCD FILE WILL CONTAIN UNIT CELL DATA
Info: XST FILENAME           mobley_6981465_equil.xst
Info: XST FREQUENCY          100000
Info: NO VELOCITY DCD OUTPUT
Info: NO FORCE DCD OUTPUT
Info: OUTPUT FILENAME        mobley_6981465_equil
Info: BINARY OUTPUT FILES WILL BE USED
Info: RESTART FILENAME       mobley_6981465_equil.restart
Info: RESTART FREQUENCY      100000
Info: BINARY RESTART FILES WILL BE USED
Info: CUTOFF                 9
Info: PAIRLIST DISTANCE      11
Info: PAIRLIST SHRINK RATE   0.01
Info: PAIRLIST GROW RATE     0.01
Info: PAIRLIST TRIGGER       0.3
Info: PAIRLISTS PER CYCLE    2
Info: PAIRLISTS ENABLED
Info: MARGIN                 8
Info: HYDROGEN GROUP CUTOFF  2.5
Info: PATCH DIMENSION        21.5
Info: ENERGY OUTPUT STEPS    100000
Info: ENERGY EVALUATION STEPS    100000
Info: OUTPUT ENERGY PRECISION 4
Info: CROSSTERM ENERGY INCLUDED IN DIHEDRAL
Info: TIMING OUTPUT STEPS    1000000
Info: PRESSURE OUTPUT STEPS  100000
Info: FIXED ATOMS ACTIVE
Info: LANGEVIN DYNAMICS ACTIVE
Info: LANGEVIN TEMPERATURE   30
Info: LANGEVIN USING BBK INTEGRATOR
Info: LANGEVIN DAMPING COEFFICIENT IS 1 INVERSE PS
Info: LANGEVIN DYNAMICS APPLIED TO HYDROGENS
Info: LANGEVIN PISTON PRESSURE CONTROL ACTIVE
Info:        TARGET PRESSURE IS 1.01325 BAR
Info:     OSCILLATION PERIOD IS 50 FS
Info:             DECAY TIME IS 25 FS
Info:     PISTON TEMPERATURE IS 300 K
Info:       PRESSURE CONTROL IS GROUP-BASED
Info:    INITIAL STRAIN RATE IS 0 0 0
Info:       CELL FLUCTUATION IS ISOTROPIC
Info: PARTICLE MESH EWALD (PME) ACTIVE
Info: PME TOLERANCE               1e-06
Info: PME EWALD COEFFICIENT       0.348832
Info: PME INTERPOLATION ORDER     4
Info: PME GRID DIMENSIONS         40 36 36
Info: PME MAXIMUM GRID SPACING    1
Info: FULL ELECTROSTATIC EVALUATION FREQUENCY      2
Info: USING VERLET I (r-RESPA) MTS SCHEME.
Info: C1 SPLITTING OF LONG RANGE ELECTROSTATICS
Info: PLACING ATOMS IN PATCHES BY HYDROGEN GROUPS
Info: RIGID BONDS TO HYDROGEN : ALL
Info:         ERROR TOLERANCE : 1e-08
Info:          MAX ITERATIONS : 100
Info: RIGID WATER USING SETTLE ALGORITHM
Info: RANDOM NUMBER SEED     1744087144
Info: USE HYDROGEN BONDS?    NO
Info: Using AMBER format force field!
Info: AMBER PARM FILE        mobley_6981465.prmtop
Info: COORDINATE PDB         mobley_6981465.pdb
Info: Exclusions will be read from PARM file!
Info: SCNB (VDW SCALING)     2
Info: USING ARITHMETIC MEAN TO COMBINE L-J SIGMA PARAMETERS
Info: BINARY COORDINATES     mobley_6981465_min.coor
Info: SUMMARY OF PARAMETERS:
Info: 9 BONDS
Info: 11 ANGLES
Info:   11 HARMONIC
Info:   0 COSINE-BASED
Info: 16 DIHEDRAL
Info: 0 IMPROPER
Info: 0 CROSSTERM
Info: 0 VDW
Info: 36 VDW_PAIRS
Info: 0 NBTHOLE_PAIRS
Info: STRUCTURE SUMMARY:
Info: 2921 ATOMS
Info: 2920 BONDS
Info: 28 ANGLES
Info: 47 DIHEDRALS
Info: 0 IMPROPERS
Info: 0 CROSSTERMS
Info: 2977 EXCLUSIONS
Info: 17 FIXED ATOMS
Info: 2914 RIGID BONDS
Info: 10 RIGID BONDS BETWEEN FIXED ATOMS
Info: 5808 DEGREES OF FREEDOM
Info: 975 HYDROGEN GROUPS
Info: 4 ATOMS IN LARGEST HYDROGEN GROUP
Info: 975 MIGRATION GROUPS
Info: 4 ATOMS IN LARGEST MIGRATION GROUP
Info: 7 HYDROGEN GROUPS WITH ALL ATOMS FIXED
Info: TOTAL MASS = 17541.6 amu
Info: TOTAL CHARGE = -4.47035e-08 e
Info: MASS DENSITY = 0.671444 g/cm^3
Info: ATOM DENSITY = 0.0673306 atoms/A^3
Info: ADDED 0 IMPLICIT EXCLUSIONS
Info: NONBONDED TABLE R-SQUARED SPACING: 0.0625
Info: NONBONDED TABLE SIZE: 705 POINTS
Info: REMOVING COM VELOCITY 0.0895258 -0.0174241 -0.167257
TCL: Running for 100000 steps
ETITLE: TS BOND ANGLE DIHED IMPRP ELECT VDW BOUNDARY MISC KINETIC TOTAL TEMP POTENTIAL TOTAL3 TEMPAVG PRESSURE GPRESSURE VOLUME PRESSAVG GPRESSAVG
ENERGY: 0 0.0000 0.0000 0.0000 0.0000 -13509.6889 2344.8367 0.0000 0.0000 1729.0863 -9435.7658 299.6267 -11164.8522 -9435.4091 299.6267 246.8459 287.4783 43382.9200 246.8459 287.4783
ENERGY: 100000 0.0000 0.0000 0.0000 0.0000 -14168.1665 2520.9290 0.0000 0.0000 177.1172 -11470.1203 30.6920 -11647.2375 -11469.5365 30.9288 640.4614 701.7010 28611.0251 3.5957 3.5749
TCL: Running 100000 steps at 60 kelvin.
TCL: Setting parameter langevinTemp to 60
TCL: Running for 100000 steps
ETITLE: TS BOND ANGLE DIHED IMPRP ELECT VDW BOUNDARY MISC KINETIC TOTAL TEMP POTENTIAL TOTAL3 TEMPAVG PRESSURE GPRESSURE VOLUME PRESSAVG GPRESSAVG
ENERGY: 100000 0.0000 0.0000 0.0000 0.0000 -14168.1665 2520.9290 0.0000 0.0000 177.0300 -11470.2075 30.6768 -11647.2375 -11469.8748 30.6768 646.4804 701.8930 28611.0251 646.4804 701.8930
ENERGY: 200000 0.0000 0.0000 0.0000 0.0000 -14130.2252 2553.5308 0.0000 0.0000 345.7769 -11230.9176 59.9183 -11576.6944 -11229.7676 60.0675 1224.7741 1272.5555 28521.0901 5.0651 5.0103
TCL: Running 100000 steps at 90 kelvin.
TCL: Setting parameter langevinTemp to 90
TCL: Running for 100000 steps
ETITLE: TS BOND ANGLE DIHED IMPRP ELECT VDW BOUNDARY MISC KINETIC TOTAL TEMP POTENTIAL TOTAL3 TEMPAVG PRESSURE GPRESSURE VOLUME PRESSAVG GPRESSAVG
ENERGY: 200000 0.0000 0.0000 0.0000 0.0000 -14130.2252 2553.5308 0.0000 0.0000 345.5934 -11231.1010 59.8865 -11576.6944 -11230.3584 59.8865 1228.9894 1272.5639 28521.0901 1228.9894 1272.5639
ENERGY: 300000 0.0000 0.0000 0.0000 0.0000 -13910.9092 2399.6086 0.0000 0.0000 514.1553 -10997.1453 89.0960 -11511.3006 -10995.9322 90.0038 302.0530 334.5158 28487.9906 2.4152 2.4929
TCL: Running 100000 steps at 120 kelvin.
TCL: Setting parameter langevinTemp to 120
TCL: Running for 100000 steps
ETITLE: TS BOND ANGLE DIHED IMPRP ELECT VDW BOUNDARY MISC KINETIC TOTAL TEMP POTENTIAL TOTAL3 TEMPAVG PRESSURE GPRESSURE VOLUME PRESSAVG GPRESSAVG
ENERGY: 300000 0.0000 0.0000 0.0000 0.0000 -13910.9092 2399.6086 0.0000 0.0000 513.9023 -10997.3983 89.0521 -11511.3006 -10996.3342 89.0521 286.4823 335.1468 28487.9906 286.4823 335.1468
ENERGY: 400000 0.0000 0.0000 0.0000 0.0000 -13599.8193 2215.3649 0.0000 0.0000 733.9470 -10650.5074 127.1828 -11384.4544 -10648.2884 119.8540 -868.4463 -848.8153 28950.1564 4.5868 4.4260
TCL: Running 100000 steps at 150 kelvin.
TCL: Setting parameter langevinTemp to 150
TCL: Running for 100000 steps
ETITLE: TS BOND ANGLE DIHED IMPRP ELECT VDW BOUNDARY MISC KINETIC TOTAL TEMP POTENTIAL TOTAL3 TEMPAVG PRESSURE GPRESSURE VOLUME PRESSAVG GPRESSAVG
ENERGY: 400000 0.0000 0.0000 0.0000 0.0000 -13599.8193 2215.3649 0.0000 0.0000 733.6048 -10650.8496 127.1235 -11384.4544 -10649.1527 127.1235 -903.5344 -848.3743 28950.1564 -903.5344 -848.3743
ENERGY: 500000 0.0000 0.0000 0.0000 0.0000 -13444.9357 2237.4653 0.0000 0.0000 847.7932 -10359.6772 146.9108 -11207.4704 -10357.0623 150.1402 55.3530 104.5126 28595.7724 5.3653 5.4101
TCL: Running 100000 steps at 180 kelvin.
TCL: Setting parameter langevinTemp to 180
TCL: Running for 100000 steps
ETITLE: TS BOND ANGLE DIHED IMPRP ELECT VDW BOUNDARY MISC KINETIC TOTAL TEMP POTENTIAL TOTAL3 TEMPAVG PRESSURE GPRESSURE VOLUME PRESSAVG GPRESSAVG
ENERGY: 500000 0.0000 0.0000 0.0000 0.0000 -13444.9357 2237.4653 0.0000 0.0000 847.3671 -10360.1034 146.8369 -11207.4704 -10358.1814 146.8369 38.5553 104.2108 28595.7724 38.5553 104.2108
ENERGY: 600000 0.0000 0.0000 0.0000 0.0000 -12895.0401 2018.6148 0.0000 0.0000 1061.8690 -9814.5564 184.0072 -10876.4253 -9812.0921 179.7171 -370.7578 -309.5373 28664.3951 4.5871 4.4839
TCL: Running 100000 steps at 210 kelvin.
TCL: Setting parameter langevinTemp to 210
TCL: Running for 100000 steps
ETITLE: TS BOND ANGLE DIHED IMPRP ELECT VDW BOUNDARY MISC KINETIC TOTAL TEMP POTENTIAL TOTAL3 TEMPAVG PRESSURE GPRESSURE VOLUME PRESSAVG GPRESSAVG
ENERGY: 600000 0.0000 0.0000 0.0000 0.0000 -12895.0401 2018.6148 0.0000 0.0000 1061.3393 -9815.0861 183.9154 -10876.4253 -9812.7877 183.9154 -387.1298 -310.9059 28664.3951 -387.1298 -310.9059
ENERGY: 700000 0.0000 0.0000 0.0000 0.0000 -12278.8894 1852.1420 0.0000 0.0000 1189.4467 -9237.3007 206.1146 -10426.7474 -9234.8727 209.8260 83.2709 144.3304 28465.7277 3.4097 3.4850
TCL: Running 100000 steps at 240 kelvin.
TCL: Setting parameter langevinTemp to 240
TCL: Running for 100000 steps
ETITLE: TS BOND ANGLE DIHED IMPRP ELECT VDW BOUNDARY MISC KINETIC TOTAL TEMP POTENTIAL TOTAL3 TEMPAVG PRESSURE GPRESSURE VOLUME PRESSAVG GPRESSAVG
ENERGY: 700000 0.0000 0.0000 0.0000 0.0000 -12278.8894 1852.1420 0.0000 0.0000 1188.8373 -9237.9101 206.0090 -10426.7474 -9236.0758 206.0090 80.1148 144.0073 28465.7277 80.1148 144.0073
ENERGY: 800000 0.0000 0.0000 0.0000 0.0000 -11599.1066 1625.4050 0.0000 0.0000 1336.4712 -8637.2304 231.5919 -9973.7016 -8634.5399 240.4453 -556.2732 -477.0577 29055.9009 3.4970 3.3943
TCL: Running 100000 steps at 270 kelvin.
TCL: Setting parameter langevinTemp to 270
TCL: Running for 100000 steps
ETITLE: TS BOND ANGLE DIHED IMPRP ELECT VDW BOUNDARY MISC KINETIC TOTAL TEMP POTENTIAL TOTAL3 TEMPAVG PRESSURE GPRESSURE VOLUME PRESSAVG GPRESSAVG
ENERGY: 800000 0.0000 0.0000 0.0000 0.0000 -11599.1066 1625.4050 0.0000 0.0000 1335.7703 -8637.9313 231.4705 -9973.7016 -8635.7019 231.4705 -553.8960 -479.0053 29055.9009 -553.8960 -479.0053
ENERGY: 900000 0.0000 0.0000 0.0000 0.0000 -11183.7435 1572.0703 0.0000 0.0000 1535.2604 -8076.4128 266.0393 -9611.6732 -8073.3153 270.5662 268.5091 323.3850 29310.1219 3.5543 3.4582
TCL: Running 1000000 steps at 300 kelvin.
TCL: Setting parameter langevinTemp to 300
TCL: Running for 1000000 steps
ETITLE: TS BOND ANGLE DIHED IMPRP ELECT VDW BOUNDARY MISC KINETIC TOTAL TEMP POTENTIAL TOTAL3 TEMPAVG PRESSURE GPRESSURE VOLUME PRESSAVG GPRESSAVG
ENERGY: 900000 0.0000 0.0000 0.0000 0.0000 -11183.7435 1572.0703 0.0000 0.0000 1534.4660 -8077.2072 265.9017 -9611.6732 -8075.0900 265.9017 238.8836 323.8681 29310.1219 238.8836 323.8681
ENERGY: 1100000 0.0000 0.0000 0.0000 0.0000 -10597.4377 1373.9216 0.0000 0.0000 1719.3136 -7504.2025 297.9332 -9223.5161 -7500.4917 300.6012 -445.4071 -350.7082 30230.4024 3.1501 3.1772
ENERGY: 1300000 0.0000 0.0000 0.0000 0.0000 -10790.1703 1520.4366 0.0000 0.0000 1741.8761 -7527.8576 301.8430 -9269.7337 -7524.4200 299.7100 806.6309 884.0980 29712.8643 3.8416 3.8036
ENERGY: 1500000 0.0000 0.0000 0.0000 0.0000 -10684.6209 1411.3862 0.0000 0.0000 1708.4312 -7564.8034 296.0474 -9273.2346 -7561.3607 300.0013 -16.1580 41.1716 29655.0327 2.9275 3.1099
ENERGY: 1700000 0.0000 0.0000 0.0000 0.0000 -10710.4785 1414.4753 0.0000 0.0000 1762.0686 -7533.9345 305.3420 -9296.0031 -7532.8713 300.1340 -348.3883 -216.4238 30179.1736 2.8800 2.8925
ENERGY: 1900000 0.0000 0.0000 0.0000 0.0000 -10709.9970 1441.5225 0.0000 0.0000 1742.2042 -7526.2704 301.8998 -9268.4745 -7524.2418 299.9411 40.7585 127.4080 30108.5202 3.2349 3.1489
TCL: Exiting due to exit command.
