Info: SIMULATION PARAMETERS:
Info: TIMESTEP               2
Info: NUMBER OF STEPS        0
Info: STEPS PER CYCLE        10
Info: PERIODIC CELL BASIS 1  37.968 0 0
Info: PERIODIC CELL BASIS 2  0 35.411 0
Info: PERIODIC CELL BASIS 3  0 0 31.349
Info: PERIODIC CELL CENTER   0 0 0
Info: WRAPPING WATERS AROUND PERIODIC BOUNDARIES ON OUTPUT.
Info: WRAPPING ALL CLUSTERS AROUND PERIODIC BOUNDARIES ON OUTPUT.
Info: FIRST LDB TIMESTEP     50
Info: LAST LDB TIMESTEP     -1
Info: HOM BACKGROUND SCALING 1
Info: PME BACKGROUND SCALING 1
Info: MIN ATOMS PER PATCH    40
Info: EMPTY PATCH LOAD       40 ATOMS
Info: INITIAL TEMPERATURE    300
Info: CENTER OF MASS MOVING INITIALLY? NO
Info: DIELECTRIC             1
Info: EXCLUDE                SCALED ONE-FOUR
Info: 1-4 ELECTROSTATICS SCALED BY 0.833333
Info: MODIFIED 1-4 VDW PARAMETERS WILL BE USED
Info: DCD FILENAME           mobley_2123854_equil.dcd
Info: DCD FREQUENCY          100000
Info: DCD FIRST STEP         100000
Info: DCD FILE WILL CONTAIN UNIT CELL DATA
Info: XST FILENAME           mobley_2123854_equil.xst
Info: XST FREQUENCY          100000
Info: NO VELOCITY DCD OUTPUT
Info: NO FORCE DCD OUTPUT
Info: OUTPUT FILENAME        mobley_2123854_equil
Info: BINARY OUTPUT FILES WILL BE USED
Info: RESTART FILENAME       mobley_2123854_equil.restart
Info: RESTART FREQUENCY      100000
Info: BINARY RESTART FILES WILL BE USED
Info: CUTOFF                 9
Info: PAIRLIST DISTANCE      11
Info: PAIRLIST SHRINK RATE   0.01
Info: PAIRLIST GROW RATE     0.01
Info: PAIRLIST TRIGGER       0.3
Info: PAIRLISTS PER CYCLE    2
Info: PAIRLISTS ENABLED
Info: MARGIN                 8
Info: HYDROGEN GROUP CUTOFF  2.5
Info: PATCH DIMENSION        21.5
Info: ENERGY OUTPUT STEPS    100000
Info: ENERGY EVALUATION STEPS    100000
Info: OUTPUT ENERGY PRECISION 4
Info: CROSSTERM ENERGY INCLUDED IN DIHEDRAL
Info: TIMING OUTPUT STEPS    1000000
Info: PRESSURE OUTPUT STEPS  100000
Info: FIXED ATOMS ACTIVE
Info: LANGEVIN DYNAMICS ACTIVE
Info: LANGEVIN TEMPERATURE   30
Info: LANGEVIN USING BBK INTEGRATOR
Info: LANGEVIN DAMPING COEFFICIENT IS 1 INVERSE PS
Info: LANGEVIN DYNAMICS APPLIED TO HYDROGENS
Info: LANGEVIN PISTON PRESSURE CONTROL ACTIVE
Info:        TARGET PRESSURE IS 1.01325 BAR
Info:     OSCILLATION PERIOD IS 50 FS
Info:             DECAY TIME IS 25 FS
Info:     PISTON TEMPERATURE IS 300 K
Info:       PRESSURE CONTROL IS GROUP-BASED
Info:    INITIAL STRAIN RATE IS 0 0 0
Info:       CELL FLUCTUATION IS ISOTROPIC
Info: PARTICLE MESH EWALD (PME) ACTIVE
Info: PME TOLERANCE               1e-06
Info: PME EWALD COEFFICIENT       0.348832
Info: PME INTERPOLATION ORDER     4
Info: PME GRID DIMENSIONS         40 36 32
Info: PME MAXIMUM GRID SPACING    1
Info: FULL ELECTROSTATIC EVALUATION FREQUENCY      2
Info: USING VERLET I (r-RESPA) MTS SCHEME.
Info: C1 SPLITTING OF LONG RANGE ELECTROSTATICS
Info: PLACING ATOMS IN PATCHES BY HYDROGEN GROUPS
Info: RIGID BONDS TO HYDROGEN : ALL
Info:         ERROR TOLERANCE : 1e-08
Info:          MAX ITERATIONS : 100
Info: RIGID WATER USING SETTLE ALGORITHM
Info: RANDOM NUMBER SEED     1743730798
Info: USE HYDROGEN BONDS?    NO
Info: Using AMBER format force field!
Info: AMBER PARM FILE        mobley_2123854.prmtop
Info: COORDINATE PDB         mobley_2123854.pdb
Info: Exclusions will be read from PARM file!
Info: SCNB (VDW SCALING)     2
Info: USING ARITHMETIC MEAN TO COMBINE L-J SIGMA PARAMETERS
Info: BINARY COORDINATES     mobley_2123854_min.coor
Info: SUMMARY OF PARAMETERS:
Info: 8 BONDS
Info: 6 ANGLES
Info:   6 HARMONIC
Info:   0 COSINE-BASED
Info: 4 DIHEDRAL
Info: 0 IMPROPER
Info: 0 CROSSTERM
Info: 0 VDW
Info: 28 VDW_PAIRS
Info: 0 NBTHOLE_PAIRS
Info: STRUCTURE SUMMARY:
Info: 2912 ATOMS
Info: 2912 BONDS
Info: 20 ANGLES
Info: 34 DIHEDRALS
Info: 0 IMPROPERS
Info: 0 CROSSTERMS
Info: 2957 EXCLUSIONS
Info: 14 FIXED ATOMS
Info: 2903 RIGID BONDS
Info: 5 RIGID BONDS BETWEEN FIXED ATOMS
Info: 5796 DEGREES OF FREEDOM
Info: 975 HYDROGEN GROUPS
Info: 3 ATOMS IN LARGEST HYDROGEN GROUP
Info: 975 MIGRATION GROUPS
Info: 3 ATOMS IN LARGEST MIGRATION GROUP
Info: 9 HYDROGEN GROUPS WITH ALL ATOMS FIXED
Info: TOTAL MASS = 17522.6 amu
Info: TOTAL CHARGE = -0.000100009 e
Info: MASS DENSITY = 0.690363 g/cm^3
Info: ATOM DENSITY = 0.0690895 atoms/A^3
Info: ADDED 0 IMPLICIT EXCLUSIONS
Info: NONBONDED TABLE R-SQUARED SPACING: 0.0625
Info: NONBONDED TABLE SIZE: 705 POINTS
Info: REMOVING COM VELOCITY -0.331031 -0.0885736 -0.0319852
TCL: Running for 100000 steps
ETITLE: TS BOND ANGLE DIHED IMPRP ELECT VDW BOUNDARY MISC KINETIC TOTAL TEMP POTENTIAL TOTAL3 TEMPAVG PRESSURE GPRESSURE VOLUME PRESSAVG GPRESSAVG
ENERGY: 0 0.0000 0.0000 0.0000 0.0000 -13570.1450 2370.0496 0.0000 0.0000 1719.1313 -9480.9641 298.5184 -11200.0954 -9480.5736 298.5184 347.4056 386.6494 42148.2555 347.4056 386.6494
ENERGY: 100000 0.0000 0.0000 0.0000 0.0000 -14170.0199 2540.6177 0.0000 0.0000 167.8239 -11461.5784 29.1418 -11629.4022 -11461.3074 30.8469 766.8245 793.4028 28590.0573 4.4453 4.4395
TCL: Running 100000 steps at 60 kelvin.
TCL: Setting parameter langevinTemp to 60
TCL: Running for 100000 steps
ETITLE: TS BOND ANGLE DIHED IMPRP ELECT VDW BOUNDARY MISC KINETIC TOTAL TEMP POTENTIAL TOTAL3 TEMPAVG PRESSURE GPRESSURE VOLUME PRESSAVG GPRESSAVG
ENERGY: 100000 0.0000 0.0000 0.0000 0.0000 -14170.0199 2540.6177 0.0000 0.0000 167.7370 -11461.6652 29.1267 -11629.4022 -11461.3877 29.1267 736.7265 793.4318 28590.0573 736.7265 793.4318
ENERGY: 200000 0.0000 0.0000 0.0000 0.0000 -13878.8334 2336.2209 0.0000 0.0000 337.7500 -11204.8625 58.6486 -11542.6125 -11204.2246 60.0545 -328.8151 -292.5160 28353.9819 3.9152 4.0297
TCL: Running 100000 steps at 90 kelvin.
TCL: Setting parameter langevinTemp to 90
TCL: Running for 100000 steps
ETITLE: TS BOND ANGLE DIHED IMPRP ELECT VDW BOUNDARY MISC KINETIC TOTAL TEMP POTENTIAL TOTAL3 TEMPAVG PRESSURE GPRESSURE VOLUME PRESSAVG GPRESSAVG
ENERGY: 200000 0.0000 0.0000 0.0000 0.0000 -13878.8334 2336.2209 0.0000 0.0000 337.5729 -11205.0397 58.6178 -11542.6125 -11204.4216 58.6178 -346.6094 -292.3317 28353.9819 -346.6094 -292.3317
ENERGY: 300000 0.0000 0.0000 0.0000 0.0000 -13773.2654 2314.1065 0.0000 0.0000 536.4854 -10922.6735 93.1580 -11459.1589 -10920.9579 90.0972 -84.1987 -23.0236 28089.3078 4.7366 4.8151
TCL: Running 100000 steps at 120 kelvin.
TCL: Setting parameter langevinTemp to 120
TCL: Running for 100000 steps
ETITLE: TS BOND ANGLE DIHED IMPRP ELECT VDW BOUNDARY MISC KINETIC TOTAL TEMP POTENTIAL TOTAL3 TEMPAVG PRESSURE GPRESSURE VOLUME PRESSAVG GPRESSAVG
ENERGY: 300000 0.0000 0.0000 0.0000 0.0000 -13773.2654 2314.1065 0.0000 0.0000 536.2155 -10922.9434 93.1111 -11459.1589 -10921.9792 93.1111 -76.5757 -23.2230 28089.3078 -76.5757 -23.2230
ENERGY: 400000 0.0000 0.0000 0.0000 0.0000 -13742.1252 2397.0998 0.0000 0.0000 685.4153 -10659.6100 119.0189 -11345.0253 -10658.9658 120.0367 940.2525 1010.7945 28041.8878 3.6682 3.6614
TCL: Running 100000 steps at 150 kelvin.
TCL: Setting parameter langevinTemp to 150
TCL: Running for 100000 steps
ETITLE: TS BOND ANGLE DIHED IMPRP ELECT VDW BOUNDARY MISC KINETIC TOTAL TEMP POTENTIAL TOTAL3 TEMPAVG PRESSURE GPRESSURE VOLUME PRESSAVG GPRESSAVG
ENERGY: 400000 0.0000 0.0000 0.0000 0.0000 -13742.1252 2397.0998 0.0000 0.0000 685.0603 -10659.9650 118.9572 -11345.0253 -10659.1983 118.9572 956.7960 1011.0855 28041.8878 956.7960 1011.0855
ENERGY: 500000 0.0000 0.0000 0.0000 0.0000 -13382.1283 2181.0944 0.0000 0.0000 851.2705 -10349.7635 147.8188 -11201.0340 -10348.5006 149.8182 -402.8937 -295.2513 28409.6430 2.9396 3.0638
TCL: Running 100000 steps at 180 kelvin.
TCL: Setting parameter langevinTemp to 180
TCL: Running for 100000 steps
ETITLE: TS BOND ANGLE DIHED IMPRP ELECT VDW BOUNDARY MISC KINETIC TOTAL TEMP POTENTIAL TOTAL3 TEMPAVG PRESSURE GPRESSURE VOLUME PRESSAVG GPRESSAVG
ENERGY: 500000 0.0000 0.0000 0.0000 0.0000 -13382.1283 2181.0944 0.0000 0.0000 850.8476 -10350.1864 147.7453 -11201.0340 -10348.4933 147.7453 -350.6298 -295.0568 28409.6430 -350.6298 -295.0568
ENERGY: 600000 0.0000 0.0000 0.0000 0.0000 -12937.6823 2070.9532 0.0000 0.0000 1037.7895 -9828.9397 180.2068 -10866.7291 -9825.9607 179.7448 -20.1831 85.7242 28468.1921 3.8501 3.9382
TCL: Running 100000 steps at 210 kelvin.
TCL: Setting parameter langevinTemp to 210
TCL: Running for 100000 steps
ETITLE: TS BOND ANGLE DIHED IMPRP ELECT VDW BOUNDARY MISC KINETIC TOTAL TEMP POTENTIAL TOTAL3 TEMPAVG PRESSURE GPRESSURE VOLUME PRESSAVG GPRESSAVG
ENERGY: 600000 0.0000 0.0000 0.0000 0.0000 -12937.6823 2070.9532 0.0000 0.0000 1037.2767 -9829.4524 180.1178 -10866.7291 -9827.5043 180.1178 28.2011 85.8254 28468.1921 28.2011 85.8254
ENERGY: 700000 0.0000 0.0000 0.0000 0.0000 -12241.1439 1883.0046 0.0000 0.0000 1169.3555 -9188.7839 203.0526 -10358.1394 -9186.7871 210.0265 214.6886 268.5281 28597.4566 2.6490 2.4967
TCL: Running 100000 steps at 240 kelvin.
TCL: Setting parameter langevinTemp to 240
TCL: Running for 100000 steps
ETITLE: TS BOND ANGLE DIHED IMPRP ELECT VDW BOUNDARY MISC KINETIC TOTAL TEMP POTENTIAL TOTAL3 TEMPAVG PRESSURE GPRESSURE VOLUME PRESSAVG GPRESSAVG
ENERGY: 700000 0.0000 0.0000 0.0000 0.0000 -12241.1439 1883.0046 0.0000 0.0000 1168.7355 -9189.4039 202.9449 -10358.1394 -9187.0133 202.9449 194.1875 266.8502 28597.4566 194.1875 266.8502
ENERGY: 800000 0.0000 0.0000 0.0000 0.0000 -11706.2142 1650.1323 0.0000 0.0000 1416.9930 -8639.0889 246.0536 -10056.0819 -8637.9778 239.9415 -568.3132 -510.5264 28863.4615 4.8168 4.7344
TCL: Running 100000 steps at 270 kelvin.
TCL: Setting parameter langevinTemp to 270
TCL: Running for 100000 steps
ETITLE: TS BOND ANGLE DIHED IMPRP ELECT VDW BOUNDARY MISC KINETIC TOTAL TEMP POTENTIAL TOTAL3 TEMPAVG PRESSURE GPRESSURE VOLUME PRESSAVG GPRESSAVG
ENERGY: 800000 0.0000 0.0000 0.0000 0.0000 -11706.2142 1650.1323 0.0000 0.0000 1416.3239 -8639.7579 245.9374 -10056.0819 -8637.3734 245.9374 -581.7626 -511.9528 28863.4615 -581.7626 -511.9528
ENERGY: 900000 0.0000 0.0000 0.0000 0.0000 -11186.0343 1590.5230 0.0000 0.0000 1553.1040 -8042.4073 269.6886 -9595.5113 -8041.2870 270.0292 131.6563 211.0855 29470.8257 3.2447 3.2585
TCL: Running 1000000 steps at 300 kelvin.
TCL: Setting parameter langevinTemp to 300
TCL: Running for 1000000 steps
ETITLE: TS BOND ANGLE DIHED IMPRP ELECT VDW BOUNDARY MISC KINETIC TOTAL TEMP POTENTIAL TOTAL3 TEMPAVG PRESSURE GPRESSURE VOLUME PRESSAVG GPRESSAVG
ENERGY: 900000 0.0000 0.0000 0.0000 0.0000 -11186.0343 1590.5230 0.0000 0.0000 1552.3245 -8043.1868 269.5532 -9595.5113 -8040.7879 269.5532 134.9391 209.9907 29470.8257 134.9391 209.9907
ENERGY: 1100000 0.0000 0.0000 0.0000 0.0000 -10550.3112 1388.3412 0.0000 0.0000 1764.1843 -7397.7856 306.3416 -9161.9699 -7394.2245 300.8604 328.6134 420.5384 29339.0828 2.3197 2.2144
ENERGY: 1300000 0.0000 0.0000 0.0000 0.0000 -10526.8251 1351.7861 0.0000 0.0000 1720.1034 -7454.9356 298.6872 -9175.0390 -7452.0608 300.9805 -663.8229 -617.5741 30375.9162 3.5056 3.5569
ENERGY: 1500000 0.0000 0.0000 0.0000 0.0000 -10563.0818 1408.8509 0.0000 0.0000 1713.5877 -7440.6433 297.5557 -9154.2309 -7440.5325 300.5829 64.3950 127.1094 29851.2407 3.3236 3.1282
ENERGY: 1700000 0.0000 0.0000 0.0000 0.0000 -10589.0022 1380.0697 0.0000 0.0000 1723.5670 -7485.3655 299.2886 -9208.9325 -7482.6103 300.1479 -211.0999 -138.6124 29787.9378 3.0644 3.2031
ENERGY: 1900000 0.0000 0.0000 0.0000 0.0000 -10788.0685 1513.2035 0.0000 0.0000 1722.7777 -7552.0873 299.1515 -9274.8650 -7550.2901 300.6758 547.3240 637.0594 29870.5188 3.3669 3.4929
TCL: Exiting due to exit command.
