Info: SIMULATION PARAMETERS:
Info: TIMESTEP               2
Info: NUMBER OF STEPS        0
Info: STEPS PER CYCLE        10
Info: PERIODIC CELL BASIS 1  36.592 0 0
Info: PERIODIC CELL BASIS 2  0 35.411 0
Info: PERIODIC CELL BASIS 3  0 0 34.229
Info: PERIODIC CELL CENTER   0 0 0
Info: WRAPPING WATERS AROUND PERIODIC BOUNDARIES ON OUTPUT.
Info: WRAPPING ALL CLUSTERS AROUND PERIODIC BOUNDARIES ON OUTPUT.
Info: FIRST LDB TIMESTEP     50
Info: LAST LDB TIMESTEP     -1
Info: HOM BACKGROUND SCALING 1
Info: PME BACKGROUND SCALING 1
Info: MIN ATOMS PER PATCH    40
Info: EMPTY PATCH LOAD       40 ATOMS
Info: INITIAL TEMPERATURE    300
Info: CENTER OF MASS MOVING INITIALLY? NO
Info: DIELECTRIC             1
Info: EXCLUDE                SCALED ONE-FOUR
Info: 1-4 ELECTROSTATICS SCALED BY 0.833333
Info: MODIFIED 1-4 VDW PARAMETERS WILL BE USED
Info: DCD FILENAME           mobley_8558116_equil.dcd
Info: DCD FREQUENCY          100000
Info: DCD FIRST STEP         100000
Info: DCD FILE WILL CONTAIN UNIT CELL DATA
Info: XST FILENAME           mobley_8558116_equil.xst
Info: XST FREQUENCY          100000
Info: NO VELOCITY DCD OUTPUT
Info: NO FORCE DCD OUTPUT
Info: OUTPUT FILENAME        mobley_8558116_equil
Info: BINARY OUTPUT FILES WILL BE USED
Info: RESTART FILENAME       mobley_8558116_equil.restart
Info: RESTART FREQUENCY      100000
Info: BINARY RESTART FILES WILL BE USED
Info: CUTOFF                 9
Info: PAIRLIST DISTANCE      11
Info: PAIRLIST SHRINK RATE   0.01
Info: PAIRLIST GROW RATE     0.01
Info: PAIRLIST TRIGGER       0.3
Info: PAIRLISTS PER CYCLE    2
Info: PAIRLISTS ENABLED
Info: MARGIN                 8
Info: HYDROGEN GROUP CUTOFF  2.5
Info: PATCH DIMENSION        21.5
Info: ENERGY OUTPUT STEPS    100000
Info: ENERGY EVALUATION STEPS    100000
Info: OUTPUT ENERGY PRECISION 4
Info: CROSSTERM ENERGY INCLUDED IN DIHEDRAL
Info: TIMING OUTPUT STEPS    1000000
Info: PRESSURE OUTPUT STEPS  100000
Info: FIXED ATOMS ACTIVE
Info: LANGEVIN DYNAMICS ACTIVE
Info: LANGEVIN TEMPERATURE   30
Info: LANGEVIN USING BBK INTEGRATOR
Info: LANGEVIN DAMPING COEFFICIENT IS 1 INVERSE PS
Info: LANGEVIN DYNAMICS APPLIED TO HYDROGENS
Info: LANGEVIN PISTON PRESSURE CONTROL ACTIVE
Info:        TARGET PRESSURE IS 1.01325 BAR
Info:     OSCILLATION PERIOD IS 50 FS
Info:             DECAY TIME IS 25 FS
Info:     PISTON TEMPERATURE IS 300 K
Info:       PRESSURE CONTROL IS GROUP-BASED
Info:    INITIAL STRAIN RATE IS 0 0 0
Info:       CELL FLUCTUATION IS ISOTROPIC
Info: PARTICLE MESH EWALD (PME) ACTIVE
Info: PME TOLERANCE               1e-06
Info: PME EWALD COEFFICIENT       0.348832
Info: PME INTERPOLATION ORDER     4
Info: PME GRID DIMENSIONS         40 36 36
Info: PME MAXIMUM GRID SPACING    1
Info: FULL ELECTROSTATIC EVALUATION FREQUENCY      2
Info: USING VERLET I (r-RESPA) MTS SCHEME.
Info: C1 SPLITTING OF LONG RANGE ELECTROSTATICS
Info: PLACING ATOMS IN PATCHES BY HYDROGEN GROUPS
Info: RIGID BONDS TO HYDROGEN : ALL
Info:         ERROR TOLERANCE : 1e-08
Info:          MAX ITERATIONS : 100
Info: RIGID WATER USING SETTLE ALGORITHM
Info: RANDOM NUMBER SEED     1743742926
Info: USE HYDROGEN BONDS?    NO
Info: Using AMBER format force field!
Info: AMBER PARM FILE        mobley_8558116.prmtop
Info: COORDINATE PDB         mobley_8558116.pdb
Info: Exclusions will be read from PARM file!
Info: SCNB (VDW SCALING)     2
Info: USING ARITHMETIC MEAN TO COMBINE L-J SIGMA PARAMETERS
Info: BINARY COORDINATES     mobley_8558116_min.coor
Info: SUMMARY OF PARAMETERS:
Info: 6 BONDS
Info: 8 ANGLES
Info: 8 DIHEDRAL
Info: 0 IMPROPER
Info: 0 CROSSTERM
Info: 0 VDW
Info: 21 VDW_PAIRS
Info: 0 NBTHOLE_PAIRS
Info: STRUCTURE SUMMARY:
Info: 2937 ATOMS
Info: 2937 BONDS
Info: 34 ANGLES
Info: 52 DIHEDRALS
Info: 0 IMPROPERS
Info: 0 CROSSTERMS
Info: 3010 EXCLUSIONS
Info: 18 FIXED ATOMS
Info: 2930 RIGID BONDS
Info: 11 RIGID BONDS BETWEEN FIXED ATOMS
Info: 5838 DEGREES OF FREEDOM
Info: 980 HYDROGEN GROUPS
Info: 4 ATOMS IN LARGEST HYDROGEN GROUP
Info: 980 MIGRATION GROUPS
Info: 4 ATOMS IN LARGEST MIGRATION GROUP
Info: 7 HYDROGEN GROUPS WITH ALL ATOMS FIXED
Info: TOTAL MASS = 17630.7 amu
Info: TOTAL CHARGE = 0.000400033 e
Info: MASS DENSITY = 0.660101 g/cm^3
Info: ATOM DENSITY = 0.0662194 atoms/A^3
Info: ADDED 0 IMPLICIT EXCLUSIONS
Info: NONBONDED TABLE R-SQUARED SPACING: 0.0625
Info: NONBONDED TABLE SIZE: 705 POINTS
Info: REMOVING COM VELOCITY -0.130672 -0.0356624 -0.0792676
TCL: Running for 100000 steps
ETITLE: TS BOND ANGLE DIHED IMPRP ELECT VDW BOUNDARY MISC KINETIC TOTAL TEMP POTENTIAL TOTAL3 TEMPAVG PRESSURE GPRESSURE VOLUME PRESSAVG GPRESSAVG
ENERGY: 0 0.0000 0.0000 0.0000 0.0000 -13604.8219 2371.4825 0.0000 0.0000 1763.7161 -9469.6233 304.0570 -11233.3394 -9469.2941 304.0570 327.0600 366.6052 44352.5455 327.0600 366.6052
ENERGY: 100000 0.0000 0.0000 0.0000 0.0000 -14189.6782 2499.4114 0.0000 0.0000 173.4276 -11516.8391 29.8982 -11690.2668 -11516.6552 30.8692 431.3494 484.9958 29067.9583 6.1358 6.0738
TCL: Running 100000 steps at 60 kelvin.
TCL: Setting parameter langevinTemp to 60
TCL: Running for 100000 steps
ETITLE: TS BOND ANGLE DIHED IMPRP ELECT VDW BOUNDARY MISC KINETIC TOTAL TEMP POTENTIAL TOTAL3 TEMPAVG PRESSURE GPRESSURE VOLUME PRESSAVG GPRESSAVG
ENERGY: 100000 0.0000 0.0000 0.0000 0.0000 -14189.6782 2499.4114 0.0000 0.0000 173.3429 -11516.9239 29.8836 -11690.2668 -11516.5397 29.8836 429.1100 484.6758 29067.9583 429.1100 484.6758
ENERGY: 200000 0.0000 0.0000 0.0000 0.0000 -14091.8446 2405.7695 0.0000 0.0000 339.7775 -11346.2976 58.5762 -11686.0751 -11346.1181 60.0606 -207.8279 -175.7475 28649.6320 3.9205 3.8802
TCL: Running 100000 steps at 90 kelvin.
TCL: Setting parameter langevinTemp to 90
TCL: Running for 100000 steps
ETITLE: TS BOND ANGLE DIHED IMPRP ELECT VDW BOUNDARY MISC KINETIC TOTAL TEMP POTENTIAL TOTAL3 TEMPAVG PRESSURE GPRESSURE VOLUME PRESSAVG GPRESSAVG
ENERGY: 200000 0.0000 0.0000 0.0000 0.0000 -14091.8446 2405.7695 0.0000 0.0000 339.5991 -11346.4760 58.5454 -11686.0751 -11345.7334 58.5454 -220.8536 -176.2370 28649.6320 -220.8536 -176.2370
ENERGY: 300000 0.0000 0.0000 0.0000 0.0000 -13846.3226 2287.8030 0.0000 0.0000 511.3904 -11047.1291 88.1615 -11558.5196 -11046.0611 89.7670 -547.6117 -458.3003 28313.6791 4.5672 4.5742
TCL: Running 100000 steps at 120 kelvin.
TCL: Setting parameter langevinTemp to 120
TCL: Running for 100000 steps
ETITLE: TS BOND ANGLE DIHED IMPRP ELECT VDW BOUNDARY MISC KINETIC TOTAL TEMP POTENTIAL TOTAL3 TEMPAVG PRESSURE GPRESSURE VOLUME PRESSAVG GPRESSAVG
ENERGY: 300000 0.0000 0.0000 0.0000 0.0000 -13846.3226 2287.8030 0.0000 0.0000 511.1284 -11047.3912 88.1163 -11558.5196 -11046.3089 88.1163 -507.2002 -458.1636 28313.6791 -507.2002 -458.1636
ENERGY: 400000 0.0000 0.0000 0.0000 0.0000 -13786.4562 2391.8235 0.0000 0.0000 692.0886 -10702.5441 119.3131 -11394.6327 -10701.2810 120.0116 746.3429 773.4668 28759.7274 2.2118 2.3415
TCL: Running 100000 steps at 150 kelvin.
TCL: Setting parameter langevinTemp to 150
TCL: Running for 100000 steps
ETITLE: TS BOND ANGLE DIHED IMPRP ELECT VDW BOUNDARY MISC KINETIC TOTAL TEMP POTENTIAL TOTAL3 TEMPAVG PRESSURE GPRESSURE VOLUME PRESSAVG GPRESSAVG
ENERGY: 400000 0.0000 0.0000 0.0000 0.0000 -13786.4562 2391.8235 0.0000 0.0000 691.7288 -10702.9039 119.2510 -11394.6327 -10701.5960 119.2510 708.8040 772.5881 28759.7274 708.8040 772.5881
ENERGY: 500000 0.0000 0.0000 0.0000 0.0000 -13534.2849 2261.0661 0.0000 0.0000 873.9774 -10399.2414 150.6699 -11273.2188 -10395.8103 150.1945 241.5463 311.9580 28838.2259 3.4309 3.4279
TCL: Running 100000 steps at 180 kelvin.
TCL: Setting parameter langevinTemp to 180
TCL: Running for 100000 steps
ETITLE: TS BOND ANGLE DIHED IMPRP ELECT VDW BOUNDARY MISC KINETIC TOTAL TEMP POTENTIAL TOTAL3 TEMPAVG PRESSURE GPRESSURE VOLUME PRESSAVG GPRESSAVG
ENERGY: 500000 0.0000 0.0000 0.0000 0.0000 -13534.2849 2261.0661 0.0000 0.0000 873.5479 -10399.6709 150.5959 -11273.2188 -10398.1649 150.5959 260.2002 314.0600 28838.2259 260.2002 314.0600
ENERGY: 600000 0.0000 0.0000 0.0000 0.0000 -13056.4263 2073.3403 0.0000 0.0000 1043.9745 -9939.1115 179.9767 -10983.0860 -9937.3920 180.0262 -334.1712 -282.3751 28881.7168 3.7835 3.6098
TCL: Running 100000 steps at 210 kelvin.
TCL: Setting parameter langevinTemp to 210
TCL: Running for 100000 steps
ETITLE: TS BOND ANGLE DIHED IMPRP ELECT VDW BOUNDARY MISC KINETIC TOTAL TEMP POTENTIAL TOTAL3 TEMPAVG PRESSURE GPRESSURE VOLUME PRESSAVG GPRESSAVG
ENERGY: 600000 0.0000 0.0000 0.0000 0.0000 -13056.4263 2073.3403 0.0000 0.0000 1043.4404 -9939.6456 179.8846 -10983.0860 -9937.8239 179.8846 -333.8893 -282.7273 28881.7168 -333.8893 -282.7273
ENERGY: 700000 0.0000 0.0000 0.0000 0.0000 -12448.1916 1943.2016 0.0000 0.0000 1186.3345 -9318.6555 204.5189 -10504.9900 -9315.5824 209.9368 301.5776 446.6087 28641.4462 4.4704 4.4034
TCL: Running 100000 steps at 240 kelvin.
TCL: Setting parameter langevinTemp to 240
TCL: Running for 100000 steps
ETITLE: TS BOND ANGLE DIHED IMPRP ELECT VDW BOUNDARY MISC KINETIC TOTAL TEMP POTENTIAL TOTAL3 TEMPAVG PRESSURE GPRESSURE VOLUME PRESSAVG GPRESSAVG
ENERGY: 700000 0.0000 0.0000 0.0000 0.0000 -12448.1916 1943.2016 0.0000 0.0000 1185.7210 -9319.2690 204.4131 -10504.9900 -9316.8078 204.4131 370.3899 446.2736 28641.4462 370.3899 446.2736
ENERGY: 800000 0.0000 0.0000 0.0000 0.0000 -11675.4929 1603.5882 0.0000 0.0000 1375.6447 -8696.2601 237.1552 -10071.9048 -8692.5357 239.7159 -780.2987 -679.4517 28757.0901 4.9751 4.8125
TCL: Running 100000 steps at 270 kelvin.
TCL: Setting parameter langevinTemp to 270
TCL: Running for 100000 steps
ETITLE: TS BOND ANGLE DIHED IMPRP ELECT VDW BOUNDARY MISC KINETIC TOTAL TEMP POTENTIAL TOTAL3 TEMPAVG PRESSURE GPRESSURE VOLUME PRESSAVG GPRESSAVG
ENERGY: 800000 0.0000 0.0000 0.0000 0.0000 -11675.4929 1603.5882 0.0000 0.0000 1374.9595 -8696.9452 237.0370 -10071.9048 -8694.5727 237.0370 -750.4132 -678.0509 28757.0901 -750.4132 -678.0509
ENERGY: 900000 0.0000 0.0000 0.0000 0.0000 -11109.0920 1459.0432 0.0000 0.0000 1579.3803 -8070.6685 272.2783 -9650.0488 -8066.4792 269.9816 -660.7274 -571.4224 29336.2139 3.9779 4.0492
TCL: Running 1000000 steps at 300 kelvin.
TCL: Setting parameter langevinTemp to 300
TCL: Running for 1000000 steps
ETITLE: TS BOND ANGLE DIHED IMPRP ELECT VDW BOUNDARY MISC KINETIC TOTAL TEMP POTENTIAL TOTAL3 TEMPAVG PRESSURE GPRESSURE VOLUME PRESSAVG GPRESSAVG
ENERGY: 900000 0.0000 0.0000 0.0000 0.0000 -11109.0920 1459.0432 0.0000 0.0000 1578.6044 -8071.4443 272.1445 -9650.0488 -8069.1818 272.1445 -645.9466 -570.4640 29336.2139 -645.9466 -570.4640
ENERGY: 1100000 0.0000 0.0000 0.0000 0.0000 -10777.3026 1503.0614 0.0000 0.0000 1765.5483 -7508.6929 304.3728 -9274.2412 -7507.0093 300.6585 462.0723 563.0061 30311.9991 3.7710 3.7345
ENERGY: 1300000 0.0000 0.0000 0.0000 0.0000 -10643.7241 1379.7567 0.0000 0.0000 1717.9168 -7546.0505 296.1614 -9263.9674 -7541.8519 300.0555 -130.8724 -45.4330 29811.0071 3.3125 3.1875
ENERGY: 1500000 0.0000 0.0000 0.0000 0.0000 -10486.8110 1345.6632 0.0000 0.0000 1765.2295 -7375.9183 304.3179 -9141.1478 -7369.3717 300.0963 -408.7197 -305.1192 30570.9197 4.8257 4.9310
ENERGY: 1700000 0.0000 0.0000 0.0000 0.0000 -10750.4376 1429.6812 0.0000 0.0000 1748.0368 -7572.7196 301.3539 -9320.7564 -7570.0617 300.3875 -258.8930 -144.3309 30053.8462 3.7727 3.7077
ENERGY: 1900000 0.0000 0.0000 0.0000 0.0000 -10800.2558 1442.0085 0.0000 0.0000 1766.1900 -7592.0573 304.4835 -9358.2473 -7585.8870 300.6547 -173.5297 -134.9791 30232.5899 4.1850 4.2267
TCL: Exiting due to exit command.
