Info: SIMULATION PARAMETERS:
Info: TIMESTEP               2
Info: NUMBER OF STEPS        0
Info: STEPS PER CYCLE        10
Info: PERIODIC CELL BASIS 1  35.89 0 0
Info: PERIODIC CELL BASIS 2  0 35.779 0
Info: PERIODIC CELL BASIS 3  0 0 34.68
Info: PERIODIC CELL CENTER   0 0 0
Info: WRAPPING WATERS AROUND PERIODIC BOUNDARIES ON OUTPUT.
Info: WRAPPING ALL CLUSTERS AROUND PERIODIC BOUNDARIES ON OUTPUT.
Info: FIRST LDB TIMESTEP     50
Info: LAST LDB TIMESTEP     -1
Info: HOM BACKGROUND SCALING 1
Info: PME BACKGROUND SCALING 1
Info: MIN ATOMS PER PATCH    40
Info: EMPTY PATCH LOAD       40 ATOMS
Info: INITIAL TEMPERATURE    300
Info: CENTER OF MASS MOVING INITIALLY? NO
Info: DIELECTRIC             1
Info: EXCLUDE                SCALED ONE-FOUR
Info: 1-4 ELECTROSTATICS SCALED BY 0.833333
Info: MODIFIED 1-4 VDW PARAMETERS WILL BE USED
Info: DCD FILENAME           mobley_6266306_equil.dcd
Info: DCD FREQUENCY          100000
Info: DCD FIRST STEP         100000
Info: DCD FILE WILL CONTAIN UNIT CELL DATA
Info: XST FILENAME           mobley_6266306_equil.xst
Info: XST FREQUENCY          100000
Info: NO VELOCITY DCD OUTPUT
Info: NO FORCE DCD OUTPUT
Info: OUTPUT FILENAME        mobley_6266306_equil
Info: BINARY OUTPUT FILES WILL BE USED
Info: RESTART FILENAME       mobley_6266306_equil.restart
Info: RESTART FREQUENCY      100000
Info: BINARY RESTART FILES WILL BE USED
Info: CUTOFF                 9
Info: PAIRLIST DISTANCE      11
Info: PAIRLIST SHRINK RATE   0.01
Info: PAIRLIST GROW RATE     0.01
Info: PAIRLIST TRIGGER       0.3
Info: PAIRLISTS PER CYCLE    2
Info: PAIRLISTS ENABLED
Info: MARGIN                 8
Info: HYDROGEN GROUP CUTOFF  2.5
Info: PATCH DIMENSION        21.5
Info: ENERGY OUTPUT STEPS    100000
Info: ENERGY EVALUATION STEPS    100000
Info: OUTPUT ENERGY PRECISION 4
Info: CROSSTERM ENERGY INCLUDED IN DIHEDRAL
Info: TIMING OUTPUT STEPS    1000000
Info: PRESSURE OUTPUT STEPS  100000
Info: FIXED ATOMS ACTIVE
Info: LANGEVIN DYNAMICS ACTIVE
Info: LANGEVIN TEMPERATURE   30
Info: LANGEVIN USING BBK INTEGRATOR
Info: LANGEVIN DAMPING COEFFICIENT IS 1 INVERSE PS
Info: LANGEVIN DYNAMICS APPLIED TO HYDROGENS
Info: LANGEVIN PISTON PRESSURE CONTROL ACTIVE
Info:        TARGET PRESSURE IS 1.01325 BAR
Info:     OSCILLATION PERIOD IS 50 FS
Info:             DECAY TIME IS 25 FS
Info:     PISTON TEMPERATURE IS 300 K
Info:       PRESSURE CONTROL IS GROUP-BASED
Info:    INITIAL STRAIN RATE IS 0 0 0
Info:       CELL FLUCTUATION IS ISOTROPIC
Info: PARTICLE MESH EWALD (PME) ACTIVE
Info: PME TOLERANCE               1e-06
Info: PME EWALD COEFFICIENT       0.348832
Info: PME INTERPOLATION ORDER     4
Info: PME GRID DIMENSIONS         36 36 36
Info: PME MAXIMUM GRID SPACING    1
Info: FULL ELECTROSTATIC EVALUATION FREQUENCY      2
Info: USING VERLET I (r-RESPA) MTS SCHEME.
Info: C1 SPLITTING OF LONG RANGE ELECTROSTATICS
Info: PLACING ATOMS IN PATCHES BY HYDROGEN GROUPS
Info: RIGID BONDS TO HYDROGEN : ALL
Info:         ERROR TOLERANCE : 1e-08
Info:          MAX ITERATIONS : 100
Info: RIGID WATER USING SETTLE ALGORITHM
Info: RANDOM NUMBER SEED     1743684197
Info: USE HYDROGEN BONDS?    NO
Info: Using AMBER format force field!
Info: AMBER PARM FILE        mobley_6266306.prmtop
Info: COORDINATE PDB         mobley_6266306.pdb
Info: Exclusions will be read from PARM file!
Info: SCNB (VDW SCALING)     2
Info: USING ARITHMETIC MEAN TO COMBINE L-J SIGMA PARAMETERS
Info: BINARY COORDINATES     mobley_6266306_min.coor
Info: SUMMARY OF PARAMETERS:
Info: 7 BONDS
Info: 9 ANGLES
Info:   9 HARMONIC
Info:   0 COSINE-BASED
Info: 3 DIHEDRAL
Info: 0 IMPROPER
Info: 0 CROSSTERM
Info: 0 VDW
Info: 28 VDW_PAIRS
Info: 0 NBTHOLE_PAIRS
Info: STRUCTURE SUMMARY:
Info: 2912 ATOMS
Info: 2912 BONDS
Info: 21 ANGLES
Info: 32 DIHEDRALS
Info: 0 IMPROPERS
Info: 0 CROSSTERMS
Info: 2950 EXCLUSIONS
Info: 11 FIXED ATOMS
Info: 2908 RIGID BONDS
Info: 7 RIGID BONDS BETWEEN FIXED ATOMS
Info: 5802 DEGREES OF FREEDOM
Info: 971 HYDROGEN GROUPS
Info: 3 ATOMS IN LARGEST HYDROGEN GROUP
Info: 971 MIGRATION GROUPS
Info: 3 ATOMS IN LARGEST MIGRATION GROUP
Info: 4 HYDROGEN GROUPS WITH ALL ATOMS FIXED
Info: TOTAL MASS = 17478.6 amu
Info: TOTAL CHARGE = -4.47035e-08 e
Info: MASS DENSITY = 0.651755 g/cm^3
Info: ATOM DENSITY = 0.0653899 atoms/A^3
Info: ADDED 0 IMPLICIT EXCLUSIONS
Info: NONBONDED TABLE R-SQUARED SPACING: 0.0625
Info: NONBONDED TABLE SIZE: 705 POINTS
Info: REMOVING COM VELOCITY -0.0516086 -0.164047 -0.156895
TCL: Running for 100000 steps
ETITLE: TS BOND ANGLE DIHED IMPRP ELECT VDW BOUNDARY MISC KINETIC TOTAL TEMP POTENTIAL TOTAL3 TEMPAVG PRESSURE GPRESSURE VOLUME PRESSAVG GPRESSAVG
ENERGY: 0 0.0000 0.0000 0.0000 0.0000 -13535.7908 2398.1538 0.0000 0.0000 1750.2091 -9387.4279 303.6006 -11137.6369 -9387.0691 303.6006 646.0523 676.8158 44532.8762 646.0523 676.8158
ENERGY: 100000 0.0000 0.0000 0.0000 0.0000 -14101.4831 2452.4233 0.0000 0.0000 174.8041 -11474.2557 30.3225 -11649.0598 -11473.6360 30.9624 186.0940 243.7156 28371.5908 2.5705 2.5758
TCL: Running 100000 steps at 60 kelvin.
TCL: Setting parameter langevinTemp to 60
TCL: Running for 100000 steps
ETITLE: TS BOND ANGLE DIHED IMPRP ELECT VDW BOUNDARY MISC KINETIC TOTAL TEMP POTENTIAL TOTAL3 TEMPAVG PRESSURE GPRESSURE VOLUME PRESSAVG GPRESSAVG
ENERGY: 100000 0.0000 0.0000 0.0000 0.0000 -14101.4831 2452.4233 0.0000 0.0000 174.7145 -11474.3454 30.3069 -11649.0598 -11473.9076 30.3069 184.9953 243.9008 28371.5908 184.9953 243.9008
ENERGY: 200000 0.0000 0.0000 0.0000 0.0000 -13970.6253 2390.9383 0.0000 0.0000 344.7797 -11234.9073 59.8073 -11579.6870 -11234.4862 59.9410 -86.5799 16.6720 28344.7528 3.3402 3.3129
TCL: Running 100000 steps at 90 kelvin.
TCL: Setting parameter langevinTemp to 90
TCL: Running for 100000 steps
ETITLE: TS BOND ANGLE DIHED IMPRP ELECT VDW BOUNDARY MISC KINETIC TOTAL TEMP POTENTIAL TOTAL3 TEMPAVG PRESSURE GPRESSURE VOLUME PRESSAVG GPRESSAVG
ENERGY: 200000 0.0000 0.0000 0.0000 0.0000 -13970.6253 2390.9383 0.0000 0.0000 344.5983 -11235.0887 59.7759 -11579.6870 -11234.3333 59.7759 -60.3840 16.6316 28344.7528 -60.3840 16.6316
ENERGY: 300000 0.0000 0.0000 0.0000 0.0000 -13850.2777 2363.8689 0.0000 0.0000 533.8210 -10952.5878 92.5994 -11486.4087 -10950.3136 90.0124 145.2139 203.4132 28354.2239 3.2848 3.2833
TCL: Running 100000 steps at 120 kelvin.
TCL: Setting parameter langevinTemp to 120
TCL: Running for 100000 steps
ETITLE: TS BOND ANGLE DIHED IMPRP ELECT VDW BOUNDARY MISC KINETIC TOTAL TEMP POTENTIAL TOTAL3 TEMPAVG PRESSURE GPRESSURE VOLUME PRESSAVG GPRESSAVG
ENERGY: 300000 0.0000 0.0000 0.0000 0.0000 -13850.2777 2363.8689 0.0000 0.0000 533.5637 -10952.8450 92.5548 -11486.4087 -10951.8778 92.5548 160.1927 204.0740 28354.2239 160.1927 204.0740
ENERGY: 400000 0.0000 0.0000 0.0000 0.0000 -13603.2161 2286.8306 0.0000 0.0000 693.3458 -10623.0397 120.2715 -11316.3855 -10621.9682 119.8616 190.6787 244.3045 28312.3468 4.2500 4.4230
TCL: Running 100000 steps at 150 kelvin.
TCL: Setting parameter langevinTemp to 150
TCL: Running for 100000 steps
ETITLE: TS BOND ANGLE DIHED IMPRP ELECT VDW BOUNDARY MISC KINETIC TOTAL TEMP POTENTIAL TOTAL3 TEMPAVG PRESSURE GPRESSURE VOLUME PRESSAVG GPRESSAVG
ENERGY: 400000 0.0000 0.0000 0.0000 0.0000 -13603.2161 2286.8306 0.0000 0.0000 692.9945 -10623.3910 120.2105 -11316.3855 -10622.2149 120.2105 199.3381 243.8867 28312.3468 199.3381 243.8867
ENERGY: 500000 0.0000 0.0000 0.0000 0.0000 -13241.9771 2043.4754 0.0000 0.0000 833.4093 -10365.0924 144.5676 -11198.5017 -10363.5929 149.8729 -1641.6935 -1589.3918 29010.9224 3.6577 3.6208
TCL: Running 100000 steps at 180 kelvin.
TCL: Setting parameter langevinTemp to 180
TCL: Running for 100000 steps
ETITLE: TS BOND ANGLE DIHED IMPRP ELECT VDW BOUNDARY MISC KINETIC TOTAL TEMP POTENTIAL TOTAL3 TEMPAVG PRESSURE GPRESSURE VOLUME PRESSAVG GPRESSAVG
ENERGY: 500000 0.0000 0.0000 0.0000 0.0000 -13241.9771 2043.4754 0.0000 0.0000 832.9911 -10365.5106 144.4951 -11198.5017 -10363.4190 144.4951 -1646.4986 -1591.2619 29010.9224 -1646.4986 -1591.2619
ENERGY: 600000 0.0000 0.0000 0.0000 0.0000 -13019.1802 2120.3454 0.0000 0.0000 1027.5863 -9871.2485 178.2506 -10898.8348 -9869.2577 180.0464 830.6619 860.5556 27664.1180 3.8130 3.8273
TCL: Running 100000 steps at 210 kelvin.
TCL: Setting parameter langevinTemp to 210
TCL: Running for 100000 steps
ETITLE: TS BOND ANGLE DIHED IMPRP ELECT VDW BOUNDARY MISC KINETIC TOTAL TEMP POTENTIAL TOTAL3 TEMPAVG PRESSURE GPRESSURE VOLUME PRESSAVG GPRESSAVG
ENERGY: 600000 0.0000 0.0000 0.0000 0.0000 -13019.1802 2120.3454 0.0000 0.0000 1027.0617 -9871.7730 178.1596 -10898.8348 -9870.0985 178.1596 782.2323 860.2411 27664.1180 782.2323 860.2411
ENERGY: 700000 0.0000 0.0000 0.0000 0.0000 -12407.2582 1982.8538 0.0000 0.0000 1206.0511 -9218.3534 209.2080 -10424.4045 -9216.4925 210.3009 1116.9327 1185.0565 28055.0291 3.9987 4.1251
TCL: Running 100000 steps at 240 kelvin.
TCL: Setting parameter langevinTemp to 240
TCL: Running for 100000 steps
ETITLE: TS BOND ANGLE DIHED IMPRP ELECT VDW BOUNDARY MISC KINETIC TOTAL TEMP POTENTIAL TOTAL3 TEMPAVG PRESSURE GPRESSURE VOLUME PRESSAVG GPRESSAVG
ENERGY: 700000 0.0000 0.0000 0.0000 0.0000 -12407.2582 1982.8538 0.0000 0.0000 1205.4503 -9218.9541 209.1038 -10424.4045 -9217.0315 209.1038 1110.7247 1184.4447 28055.0291 1110.7247 1184.4447
ENERGY: 800000 0.0000 0.0000 0.0000 0.0000 -11758.1266 1728.0797 0.0000 0.0000 1415.0470 -8615.0000 245.4616 -10030.0469 -8610.3795 239.7749 -4.9509 68.3345 29043.2573 4.0034 3.7977
TCL: Running 100000 steps at 270 kelvin.
TCL: Setting parameter langevinTemp to 270
TCL: Running for 100000 steps
ETITLE: TS BOND ANGLE DIHED IMPRP ELECT VDW BOUNDARY MISC KINETIC TOTAL TEMP POTENTIAL TOTAL3 TEMPAVG PRESSURE GPRESSURE VOLUME PRESSAVG GPRESSAVG
ENERGY: 800000 0.0000 0.0000 0.0000 0.0000 -11758.1266 1728.0797 0.0000 0.0000 1414.3377 -8615.7092 245.3385 -10030.0469 -8613.1084 245.3385 -1.1974 69.7818 29043.2573 -1.1974 69.7818
ENERGY: 900000 0.0000 0.0000 0.0000 0.0000 -11109.7557 1518.3675 0.0000 0.0000 1590.2355 -8001.1528 275.8507 -9591.3883 -7998.2543 269.3238 -442.2250 -386.7110 29384.7067 2.7283 2.9265
TCL: Running 1000000 steps at 300 kelvin.
TCL: Setting parameter langevinTemp to 300
TCL: Running for 1000000 steps
ETITLE: TS BOND ANGLE DIHED IMPRP ELECT VDW BOUNDARY MISC KINETIC TOTAL TEMP POTENTIAL TOTAL3 TEMPAVG PRESSURE GPRESSURE VOLUME PRESSAVG GPRESSAVG
ENERGY: 900000 0.0000 0.0000 0.0000 0.0000 -11109.7557 1518.3675 0.0000 0.0000 1589.4505 -8001.9377 275.7145 -9591.3883 -7999.1664 275.7145 -463.3305 -386.7492 29384.7067 -463.3305 -386.7492
ENERGY: 1100000 0.0000 0.0000 0.0000 0.0000 -10373.7062 1260.6585 0.0000 0.0000 1764.2984 -7348.7494 306.0446 -9113.0478 -7345.4489 300.0212 -1082.6757 -1001.9823 29985.2682 3.1066 2.9573
ENERGY: 1300000 0.0000 0.0000 0.0000 0.0000 -10633.2388 1474.4563 0.0000 0.0000 1737.6130 -7421.1694 301.4156 -9158.7824 -7415.4303 299.8438 768.1666 795.9644 29587.3252 4.0636 4.0755
ENERGY: 1500000 0.0000 0.0000 0.0000 0.0000 -10567.4876 1446.4724 0.0000 0.0000 1780.7296 -7340.2857 308.8948 -9121.0152 -7338.0419 300.3121 529.7336 603.5632 29935.2047 1.9693 1.9539
ENERGY: 1700000 0.0000 0.0000 0.0000 0.0000 -10652.9520 1419.7849 0.0000 0.0000 1730.9871 -7502.1800 300.2662 -9233.1671 -7500.1178 299.6870 -437.9687 -340.8755 30637.7002 4.4114 4.1759
ENERGY: 1900000 0.0000 0.0000 0.0000 0.0000 -10656.0988 1382.5178 0.0000 0.0000 1708.1887 -7565.3923 296.3115 -9273.5810 -7559.9686 299.7343 -393.2527 -284.4231 29548.3322 4.0587 4.0679
TCL: Exiting due to exit command.
