Info: SIMULATION PARAMETERS:
Info: TIMESTEP               2
Info: NUMBER OF STEPS        0
Info: STEPS PER CYCLE        10
Info: PERIODIC CELL BASIS 1  36.592 0 0
Info: PERIODIC CELL BASIS 2  0 35.411 0
Info: PERIODIC CELL BASIS 3  0 0 34.229
Info: PERIODIC CELL CENTER   0 0 0
Info: WRAPPING WATERS AROUND PERIODIC BOUNDARIES ON OUTPUT.
Info: WRAPPING ALL CLUSTERS AROUND PERIODIC BOUNDARIES ON OUTPUT.
Info: FIRST LDB TIMESTEP     50
Info: LAST LDB TIMESTEP     -1
Info: HOM BACKGROUND SCALING 1
Info: PME BACKGROUND SCALING 1
Info: MIN ATOMS PER PATCH    40
Info: EMPTY PATCH LOAD       40 ATOMS
Info: INITIAL TEMPERATURE    300
Info: CENTER OF MASS MOVING INITIALLY? NO
Info: DIELECTRIC             1
Info: EXCLUDE                SCALED ONE-FOUR
Info: 1-4 ELECTROSTATICS SCALED BY 0.833333
Info: MODIFIED 1-4 VDW PARAMETERS WILL BE USED
Info: DCD FILENAME           mobley_7010316_equil.dcd
Info: DCD FREQUENCY          100000
Info: DCD FIRST STEP         100000
Info: DCD FILE WILL CONTAIN UNIT CELL DATA
Info: XST FILENAME           mobley_7010316_equil.xst
Info: XST FREQUENCY          100000
Info: NO VELOCITY DCD OUTPUT
Info: NO FORCE DCD OUTPUT
Info: OUTPUT FILENAME        mobley_7010316_equil
Info: BINARY OUTPUT FILES WILL BE USED
Info: RESTART FILENAME       mobley_7010316_equil.restart
Info: RESTART FREQUENCY      100000
Info: BINARY RESTART FILES WILL BE USED
Info: CUTOFF                 9
Info: PAIRLIST DISTANCE      11
Info: PAIRLIST SHRINK RATE   0.01
Info: PAIRLIST GROW RATE     0.01
Info: PAIRLIST TRIGGER       0.3
Info: PAIRLISTS PER CYCLE    2
Info: PAIRLISTS ENABLED
Info: MARGIN                 8
Info: HYDROGEN GROUP CUTOFF  2.5
Info: PATCH DIMENSION        21.5
Info: ENERGY OUTPUT STEPS    100000
Info: ENERGY EVALUATION STEPS    100000
Info: OUTPUT ENERGY PRECISION 4
Info: CROSSTERM ENERGY INCLUDED IN DIHEDRAL
Info: TIMING OUTPUT STEPS    1000000
Info: PRESSURE OUTPUT STEPS  100000
Info: FIXED ATOMS ACTIVE
Info: LANGEVIN DYNAMICS ACTIVE
Info: LANGEVIN TEMPERATURE   30
Info: LANGEVIN USING BBK INTEGRATOR
Info: LANGEVIN DAMPING COEFFICIENT IS 1 INVERSE PS
Info: LANGEVIN DYNAMICS APPLIED TO HYDROGENS
Info: LANGEVIN PISTON PRESSURE CONTROL ACTIVE
Info:        TARGET PRESSURE IS 1.01325 BAR
Info:     OSCILLATION PERIOD IS 50 FS
Info:             DECAY TIME IS 25 FS
Info:     PISTON TEMPERATURE IS 300 K
Info:       PRESSURE CONTROL IS GROUP-BASED
Info:    INITIAL STRAIN RATE IS 0 0 0
Info:       CELL FLUCTUATION IS ISOTROPIC
Info: PARTICLE MESH EWALD (PME) ACTIVE
Info: PME TOLERANCE               1e-06
Info: PME EWALD COEFFICIENT       0.348832
Info: PME INTERPOLATION ORDER     4
Info: PME GRID DIMENSIONS         40 36 36
Info: PME MAXIMUM GRID SPACING    1
Info: FULL ELECTROSTATIC EVALUATION FREQUENCY      2
Info: USING VERLET I (r-RESPA) MTS SCHEME.
Info: C1 SPLITTING OF LONG RANGE ELECTROSTATICS
Info: PLACING ATOMS IN PATCHES BY HYDROGEN GROUPS
Info: RIGID BONDS TO HYDROGEN : ALL
Info:         ERROR TOLERANCE : 1e-08
Info:          MAX ITERATIONS : 100
Info: RIGID WATER USING SETTLE ALGORITHM
Info: RANDOM NUMBER SEED     1743764137
Info: USE HYDROGEN BONDS?    NO
Info: Using AMBER format force field!
Info: AMBER PARM FILE        mobley_7010316.prmtop
Info: COORDINATE PDB         mobley_7010316.pdb
Info: Exclusions will be read from PARM file!
Info: SCNB (VDW SCALING)     2
Info: USING ARITHMETIC MEAN TO COMBINE L-J SIGMA PARAMETERS
Info: BINARY COORDINATES     mobley_7010316_min.coor
Info: SUMMARY OF PARAMETERS:
Info: 7 BONDS
Info: 7 ANGLES
Info:   7 HARMONIC
Info:   0 COSINE-BASED
Info: 9 DIHEDRAL
Info: 0 IMPROPER
Info: 0 CROSSTERM
Info: 0 VDW
Info: 21 VDW_PAIRS
Info: 0 NBTHOLE_PAIRS
Info: STRUCTURE SUMMARY:
Info: 2986 ATOMS
Info: 2986 BONDS
Info: 37 ANGLES
Info: 75 DIHEDRALS
Info: 0 IMPROPERS
Info: 0 CROSSTERMS
Info: 3077 EXCLUSIONS
Info: 19 FIXED ATOMS
Info: 2979 RIGID BONDS
Info: 12 RIGID BONDS BETWEEN FIXED ATOMS
Info: 5934 DEGREES OF FREEDOM
Info: 996 HYDROGEN GROUPS
Info: 3 ATOMS IN LARGEST HYDROGEN GROUP
Info: 996 MIGRATION GROUPS
Info: 3 ATOMS IN LARGEST MIGRATION GROUP
Info: 7 HYDROGEN GROUPS WITH ALL ATOMS FIXED
Info: TOTAL MASS = 17918 amu
Info: TOTAL CHARGE = -4.47035e-08 e
Info: MASS DENSITY = 0.670857 g/cm^3
Info: ATOM DENSITY = 0.0673242 atoms/A^3
Info: ADDED 0 IMPLICIT EXCLUSIONS
Info: NONBONDED TABLE R-SQUARED SPACING: 0.0625
Info: NONBONDED TABLE SIZE: 705 POINTS
Info: REMOVING COM VELOCITY 0.0864723 0.0873948 0.0419704
TCL: Running for 100000 steps
ETITLE: TS BOND ANGLE DIHED IMPRP ELECT VDW BOUNDARY MISC KINETIC TOTAL TEMP POTENTIAL TOTAL3 TEMPAVG PRESSURE GPRESSURE VOLUME PRESSAVG GPRESSAVG
ENERGY: 0 0.0000 0.0000 0.0000 0.0000 -13831.6209 2428.2826 0.0000 0.0000 1780.2110 -9623.1272 301.9356 -11403.3383 -9622.7755 301.9356 331.6113 368.7094 44352.5455 331.6113 368.7094
ENERGY: 100000 0.0000 0.0000 0.0000 0.0000 -14466.0591 2540.4854 0.0000 0.0000 176.5415 -11749.0323 29.9426 -11925.5738 -11748.8746 30.9752 263.6880 323.2452 28941.0827 3.9638 3.9172
TCL: Running 100000 steps at 60 kelvin.
TCL: Setting parameter langevinTemp to 60
TCL: Running for 100000 steps
ETITLE: TS BOND ANGLE DIHED IMPRP ELECT VDW BOUNDARY MISC KINETIC TOTAL TEMP POTENTIAL TOTAL3 TEMPAVG PRESSURE GPRESSURE VOLUME PRESSAVG GPRESSAVG
ENERGY: 100000 0.0000 0.0000 0.0000 0.0000 -14466.0591 2540.4854 0.0000 0.0000 176.4579 -11749.1159 29.9284 -11925.5738 -11748.7782 29.9284 273.2156 323.1203 28941.0827 273.2156 323.1203
ENERGY: 200000 0.0000 0.0000 0.0000 0.0000 -14277.5828 2419.4736 0.0000 0.0000 366.3764 -11491.7328 62.1399 -11858.1092 -11491.2523 59.9901 -547.8475 -508.4356 29066.2245 4.4671 4.4670
TCL: Running 100000 steps at 90 kelvin.
TCL: Setting parameter langevinTemp to 90
TCL: Running for 100000 steps
ETITLE: TS BOND ANGLE DIHED IMPRP ELECT VDW BOUNDARY MISC KINETIC TOTAL TEMP POTENTIAL TOTAL3 TEMPAVG PRESSURE GPRESSURE VOLUME PRESSAVG GPRESSAVG
ENERGY: 200000 0.0000 0.0000 0.0000 0.0000 -14277.5828 2419.4736 0.0000 0.0000 366.2019 -11491.9073 62.1103 -11858.1092 -11491.0947 62.1103 -550.1448 -509.1962 29066.2245 -550.1448 -509.1962
ENERGY: 300000 0.0000 0.0000 0.0000 0.0000 -14208.0574 2473.0305 0.0000 0.0000 535.5036 -11199.5232 90.8250 -11735.0268 -11198.6172 90.0236 655.5511 657.6412 28754.1550 4.5081 4.5435
TCL: Running 100000 steps at 120 kelvin.
TCL: Setting parameter langevinTemp to 120
TCL: Running for 100000 steps
ETITLE: TS BOND ANGLE DIHED IMPRP ELECT VDW BOUNDARY MISC KINETIC TOTAL TEMP POTENTIAL TOTAL3 TEMPAVG PRESSURE GPRESSURE VOLUME PRESSAVG GPRESSAVG
ENERGY: 300000 0.0000 0.0000 0.0000 0.0000 -14208.0574 2473.0305 0.0000 0.0000 535.2509 -11199.7760 90.7821 -11735.0268 -11198.7409 90.7821 616.2472 657.7660 28754.1550 616.2472 657.7660
ENERGY: 400000 0.0000 0.0000 0.0000 0.0000 -13950.0218 2328.9175 0.0000 0.0000 689.7657 -10931.3386 116.9888 -11621.1043 -10930.1274 120.0422 -360.9059 -285.0766 29300.4418 5.7012 5.6853
TCL: Running 100000 steps at 150 kelvin.
TCL: Setting parameter langevinTemp to 150
TCL: Running for 100000 steps
ETITLE: TS BOND ANGLE DIHED IMPRP ELECT VDW BOUNDARY MISC KINETIC TOTAL TEMP POTENTIAL TOTAL3 TEMPAVG PRESSURE GPRESSURE VOLUME PRESSAVG GPRESSAVG
ENERGY: 400000 0.0000 0.0000 0.0000 0.0000 -13950.0218 2328.9175 0.0000 0.0000 689.4086 -10931.6957 116.9283 -11621.1043 -10930.6794 116.9283 -344.1194 -284.7886 29300.4418 -344.1194 -284.7886
ENERGY: 500000 0.0000 0.0000 0.0000 0.0000 -13812.3778 2363.0436 0.0000 0.0000 896.5395 -10552.7946 152.0591 -11449.3342 -10550.1892 149.8896 636.7865 729.5885 29063.0788 3.4229 3.4196
TCL: Running 100000 steps at 180 kelvin.
TCL: Setting parameter langevinTemp to 180
TCL: Running for 100000 steps
ETITLE: TS BOND ANGLE DIHED IMPRP ELECT VDW BOUNDARY MISC KINETIC TOTAL TEMP POTENTIAL TOTAL3 TEMPAVG PRESSURE GPRESSURE VOLUME PRESSAVG GPRESSAVG
ENERGY: 500000 0.0000 0.0000 0.0000 0.0000 -13812.3778 2363.0436 0.0000 0.0000 896.0838 -10553.2504 151.9818 -11449.3342 -10551.7031 151.9818 671.0433 729.8126 29063.0788 671.0433 729.8126
ENERGY: 600000 0.0000 0.0000 0.0000 0.0000 -13434.1527 2289.6551 0.0000 0.0000 1079.9271 -10064.5705 183.1628 -11144.4976 -10063.4572 179.8725 1205.8112 1222.9765 29259.0096 3.5389 3.6465
TCL: Running 100000 steps at 210 kelvin.
TCL: Setting parameter langevinTemp to 210
TCL: Running for 100000 steps
ETITLE: TS BOND ANGLE DIHED IMPRP ELECT VDW BOUNDARY MISC KINETIC TOTAL TEMP POTENTIAL TOTAL3 TEMPAVG PRESSURE GPRESSURE VOLUME PRESSAVG GPRESSAVG
ENERGY: 600000 0.0000 0.0000 0.0000 0.0000 -13434.1527 2289.6551 0.0000 0.0000 1079.3876 -10065.1100 183.0713 -11144.4976 -10063.3708 183.0713 1155.6838 1221.2917 29259.0096 1155.6838 1221.2917
ENERGY: 700000 0.0000 0.0000 0.0000 0.0000 -12641.6208 1971.6620 0.0000 0.0000 1211.0374 -9458.9214 205.4000 -10669.9588 -9455.0686 210.0246 235.8150 358.7347 29135.9786 2.4216 2.3427
TCL: Running 100000 steps at 240 kelvin.
TCL: Setting parameter langevinTemp to 240
TCL: Running for 100000 steps
ETITLE: TS BOND ANGLE DIHED IMPRP ELECT VDW BOUNDARY MISC KINETIC TOTAL TEMP POTENTIAL TOTAL3 TEMPAVG PRESSURE GPRESSURE VOLUME PRESSAVG GPRESSAVG
ENERGY: 700000 0.0000 0.0000 0.0000 0.0000 -12641.6208 1971.6620 0.0000 0.0000 1210.4244 -9459.5344 205.2960 -10669.9588 -9457.9020 205.2960 271.3194 358.8263 29135.9786 271.3194 358.8263
ENERGY: 800000 0.0000 0.0000 0.0000 0.0000 -11846.6825 1636.1638 0.0000 0.0000 1444.3334 -8766.1853 244.9685 -10210.5187 -8761.9146 239.9112 -732.0377 -691.8617 29540.4256 4.9501 4.8356
TCL: Running 100000 steps at 270 kelvin.
TCL: Setting parameter langevinTemp to 270
TCL: Running for 100000 steps
ETITLE: TS BOND ANGLE DIHED IMPRP ELECT VDW BOUNDARY MISC KINETIC TOTAL TEMP POTENTIAL TOTAL3 TEMPAVG PRESSURE GPRESSURE VOLUME PRESSAVG GPRESSAVG
ENERGY: 800000 0.0000 0.0000 0.0000 0.0000 -11846.6825 1636.1638 0.0000 0.0000 1443.5915 -8766.9273 244.8427 -10210.5187 -8764.0806 244.8427 -786.2765 -691.5845 29540.4256 -786.2765 -691.5845
ENERGY: 900000 0.0000 0.0000 0.0000 0.0000 -11415.3110 1600.1630 0.0000 0.0000 1629.6425 -8185.5055 276.3982 -9815.1480 -8183.6163 269.5341 310.1414 411.3299 29752.6010 2.9175 2.9153
TCL: Running 1000000 steps at 300 kelvin.
TCL: Setting parameter langevinTemp to 300
TCL: Running for 1000000 steps
ETITLE: TS BOND ANGLE DIHED IMPRP ELECT VDW BOUNDARY MISC KINETIC TOTAL TEMP POTENTIAL TOTAL3 TEMPAVG PRESSURE GPRESSURE VOLUME PRESSAVG GPRESSAVG
ENERGY: 900000 0.0000 0.0000 0.0000 0.0000 -11415.3110 1600.1630 0.0000 0.0000 1628.8682 -8186.2798 276.2669 -9815.1480 -8184.0303 276.2669 332.2840 410.3076 29752.6010 332.2840 410.3076
ENERGY: 1100000 0.0000 0.0000 0.0000 0.0000 -10940.4814 1495.6686 0.0000 0.0000 1804.2736 -7640.5392 306.0168 -9444.8128 -7638.2229 300.1257 180.4633 265.4802 30681.2784 4.3987 4.2322
ENERGY: 1300000 0.0000 0.0000 0.0000 0.0000 -10976.4925 1526.8548 0.0000 0.0000 1761.8938 -7687.7439 298.8289 -9449.6377 -7682.4666 300.4983 413.9814 494.5751 30433.6349 2.9472 2.7226
ENERGY: 1500000 0.0000 0.0000 0.0000 0.0000 -10742.6200 1396.3041 0.0000 0.0000 1838.6733 -7507.6426 311.8512 -9346.3159 -7503.6079 300.2124 -268.0621 -117.1211 30783.2498 3.9989 3.9543
ENERGY: 1700000 0.0000 0.0000 0.0000 0.0000 -10940.4389 1500.9295 0.0000 0.0000 1795.8067 -7643.7028 304.5807 -9439.5095 -7641.4679 300.0754 330.4120 437.1174 30575.7858 3.4784 3.3008
ENERGY: 1900000 0.0000 0.0000 0.0000 0.0000 -10858.6345 1440.7668 0.0000 0.0000 1729.1083 -7688.7594 293.2682 -9417.8677 -7684.6318 299.7076 -104.6717 -78.4297 30678.6860 4.0393 4.0430
TCL: Exiting due to exit command.
