Info: SIMULATION PARAMETERS:
Info: TIMESTEP               2
Info: NUMBER OF STEPS        0
Info: STEPS PER CYCLE        10
Info: PERIODIC CELL BASIS 1  37.399 0 0
Info: PERIODIC CELL BASIS 2  0 35.779 0
Info: PERIODIC CELL BASIS 3  0 0 31.855
Info: PERIODIC CELL CENTER   0 0 0
Info: WRAPPING WATERS AROUND PERIODIC BOUNDARIES ON OUTPUT.
Info: WRAPPING ALL CLUSTERS AROUND PERIODIC BOUNDARIES ON OUTPUT.
Info: FIRST LDB TIMESTEP     50
Info: LAST LDB TIMESTEP     -1
Info: HOM BACKGROUND SCALING 1
Info: PME BACKGROUND SCALING 1
Info: MIN ATOMS PER PATCH    40
Info: EMPTY PATCH LOAD       40 ATOMS
Info: INITIAL TEMPERATURE    300
Info: CENTER OF MASS MOVING INITIALLY? NO
Info: DIELECTRIC             1
Info: EXCLUDE                SCALED ONE-FOUR
Info: 1-4 ELECTROSTATICS SCALED BY 0.833333
Info: MODIFIED 1-4 VDW PARAMETERS WILL BE USED
Info: DCD FILENAME           mobley_8789465_equil.dcd
Info: DCD FREQUENCY          100000
Info: DCD FIRST STEP         100000
Info: DCD FILE WILL CONTAIN UNIT CELL DATA
Info: XST FILENAME           mobley_8789465_equil.xst
Info: XST FREQUENCY          100000
Info: NO VELOCITY DCD OUTPUT
Info: NO FORCE DCD OUTPUT
Info: OUTPUT FILENAME        mobley_8789465_equil
Info: BINARY OUTPUT FILES WILL BE USED
Info: RESTART FILENAME       mobley_8789465_equil.restart
Info: RESTART FREQUENCY      100000
Info: BINARY RESTART FILES WILL BE USED
Info: CUTOFF                 9
Info: PAIRLIST DISTANCE      11
Info: PAIRLIST SHRINK RATE   0.01
Info: PAIRLIST GROW RATE     0.01
Info: PAIRLIST TRIGGER       0.3
Info: PAIRLISTS PER CYCLE    2
Info: PAIRLISTS ENABLED
Info: MARGIN                 8
Info: HYDROGEN GROUP CUTOFF  2.5
Info: PATCH DIMENSION        21.5
Info: ENERGY OUTPUT STEPS    100000
Info: ENERGY EVALUATION STEPS    100000
Info: OUTPUT ENERGY PRECISION 4
Info: CROSSTERM ENERGY INCLUDED IN DIHEDRAL
Info: TIMING OUTPUT STEPS    1000000
Info: PRESSURE OUTPUT STEPS  100000
Info: FIXED ATOMS ACTIVE
Info: LANGEVIN DYNAMICS ACTIVE
Info: LANGEVIN TEMPERATURE   30
Info: LANGEVIN USING BBK INTEGRATOR
Info: LANGEVIN DAMPING COEFFICIENT IS 1 INVERSE PS
Info: LANGEVIN DYNAMICS APPLIED TO HYDROGENS
Info: LANGEVIN PISTON PRESSURE CONTROL ACTIVE
Info:        TARGET PRESSURE IS 1.01325 BAR
Info:     OSCILLATION PERIOD IS 50 FS
Info:             DECAY TIME IS 25 FS
Info:     PISTON TEMPERATURE IS 300 K
Info:       PRESSURE CONTROL IS GROUP-BASED
Info:    INITIAL STRAIN RATE IS 0 0 0
Info:       CELL FLUCTUATION IS ISOTROPIC
Info: PARTICLE MESH EWALD (PME) ACTIVE
Info: PME TOLERANCE               1e-06
Info: PME EWALD COEFFICIENT       0.348832
Info: PME INTERPOLATION ORDER     4
Info: PME GRID DIMENSIONS         40 36 32
Info: PME MAXIMUM GRID SPACING    1
Info: FULL ELECTROSTATIC EVALUATION FREQUENCY      2
Info: USING VERLET I (r-RESPA) MTS SCHEME.
Info: C1 SPLITTING OF LONG RANGE ELECTROSTATICS
Info: PLACING ATOMS IN PATCHES BY HYDROGEN GROUPS
Info: RIGID BONDS TO HYDROGEN : ALL
Info:         ERROR TOLERANCE : 1e-08
Info:          MAX ITERATIONS : 100
Info: RIGID WATER USING SETTLE ALGORITHM
Info: RANDOM NUMBER SEED     1743729436
Info: USE HYDROGEN BONDS?    NO
Info: Using AMBER format force field!
Info: AMBER PARM FILE        mobley_8789465.prmtop
Info: COORDINATE PDB         mobley_8789465.pdb
Info: Exclusions will be read from PARM file!
Info: SCNB (VDW SCALING)     2
Info: USING ARITHMETIC MEAN TO COMBINE L-J SIGMA PARAMETERS
Info: BINARY COORDINATES     mobley_8789465_min.coor
Info: SUMMARY OF PARAMETERS:
Info: 7 BONDS
Info: 5 ANGLES
Info:   5 HARMONIC
Info:   0 COSINE-BASED
Info: 3 DIHEDRAL
Info: 0 IMPROPER
Info: 0 CROSSTERM
Info: 0 VDW
Info: 21 VDW_PAIRS
Info: 0 NBTHOLE_PAIRS
Info: STRUCTURE SUMMARY:
Info: 2923 ATOMS
Info: 2923 BONDS
Info: 19 ANGLES
Info: 32 DIHEDRALS
Info: 0 IMPROPERS
Info: 0 CROSSTERMS
Info: 2965 EXCLUSIONS
Info: 13 FIXED ATOMS
Info: 2915 RIGID BONDS
Info: 5 RIGID BONDS BETWEEN FIXED ATOMS
Info: 5820 DEGREES OF FREEDOM
Info: 978 HYDROGEN GROUPS
Info: 3 ATOMS IN LARGEST HYDROGEN GROUP
Info: 978 MIGRATION GROUPS
Info: 3 ATOMS IN LARGEST MIGRATION GROUP
Info: 8 HYDROGEN GROUPS WITH ALL ATOMS FIXED
Info: TOTAL MASS = 17695.5 amu
Info: TOTAL CHARGE = 7.45058e-09 e
Info: MASS DENSITY = 0.689377 g/cm^3
Info: ATOM DENSITY = 0.0685746 atoms/A^3
Info: ADDED 0 IMPLICIT EXCLUSIONS
Info: NONBONDED TABLE R-SQUARED SPACING: 0.0625
Info: NONBONDED TABLE SIZE: 705 POINTS
Info: REMOVING COM VELOCITY -0.126773 0.18772 -0.0231348
TCL: Running for 100000 steps
ETITLE: TS BOND ANGLE DIHED IMPRP ELECT VDW BOUNDARY MISC KINETIC TOTAL TEMP POTENTIAL TOTAL3 TEMPAVG PRESSURE GPRESSURE VOLUME PRESSAVG GPRESSAVG
ENERGY: 0 0.0000 0.0000 0.0000 0.0000 -13639.3680 2322.3918 0.0000 0.0000 1743.3945 -9573.5817 301.4832 -11316.9762 -9573.2448 301.4832 -112.1391 -84.0725 42625.1379 -112.1391 -84.0725
ENERGY: 100000 0.0000 0.0000 0.0000 0.0000 -14207.5269 2513.8907 0.0000 0.0000 168.8068 -11524.8294 29.1916 -11693.6362 -11524.2545 30.9224 464.5080 551.4513 28428.1742 3.9968 4.0357
TCL: Running 100000 steps at 60 kelvin.
TCL: Setting parameter langevinTemp to 60
TCL: Running for 100000 steps
ETITLE: TS BOND ANGLE DIHED IMPRP ELECT VDW BOUNDARY MISC KINETIC TOTAL TEMP POTENTIAL TOTAL3 TEMPAVG PRESSURE GPRESSURE VOLUME PRESSAVG GPRESSAVG
ENERGY: 100000 0.0000 0.0000 0.0000 0.0000 -14207.5269 2513.8907 0.0000 0.0000 168.7192 -11524.9171 29.1764 -11693.6362 -11524.6066 29.1764 491.8509 551.7017 28428.1742 491.8509 551.7017
ENERGY: 200000 0.0000 0.0000 0.0000 0.0000 -14099.0070 2481.8206 0.0000 0.0000 347.4104 -11269.7760 60.0773 -11617.1864 -11268.6787 60.0413 568.6244 640.7148 28520.7756 3.4521 3.4148
TCL: Running 100000 steps at 90 kelvin.
TCL: Setting parameter langevinTemp to 90
TCL: Running for 100000 steps
ETITLE: TS BOND ANGLE DIHED IMPRP ELECT VDW BOUNDARY MISC KINETIC TOTAL TEMP POTENTIAL TOTAL3 TEMPAVG PRESSURE GPRESSURE VOLUME PRESSAVG GPRESSAVG
ENERGY: 200000 0.0000 0.0000 0.0000 0.0000 -14099.0070 2481.8206 0.0000 0.0000 347.2333 -11269.9530 60.0467 -11617.1864 -11269.2550 60.0467 572.8576 641.1314 28520.7756 572.8576 641.1314
ENERGY: 300000 0.0000 0.0000 0.0000 0.0000 -13991.7775 2450.8165 0.0000 0.0000 504.7401 -11036.2209 87.2841 -11540.9610 -11035.0178 89.9620 673.7863 720.0024 28288.1382 4.1235 4.0583
TCL: Running 100000 steps at 120 kelvin.
TCL: Setting parameter langevinTemp to 120
TCL: Running for 100000 steps
ETITLE: TS BOND ANGLE DIHED IMPRP ELECT VDW BOUNDARY MISC KINETIC TOTAL TEMP POTENTIAL TOTAL3 TEMPAVG PRESSURE GPRESSURE VOLUME PRESSAVG GPRESSAVG
ENERGY: 300000 0.0000 0.0000 0.0000 0.0000 -13991.7775 2450.8165 0.0000 0.0000 504.4680 -11036.4930 87.2371 -11540.9610 -11035.6063 87.2371 674.2306 719.5399 28288.1382 674.2306 719.5399
ENERGY: 400000 0.0000 0.0000 0.0000 0.0000 -13728.1107 2318.2463 0.0000 0.0000 676.5591 -10733.3054 116.9966 -11409.8645 -10731.9996 119.8474 -51.0998 -5.4860 28542.2913 5.0853 5.0246
TCL: Running 100000 steps at 150 kelvin.
TCL: Setting parameter langevinTemp to 150
TCL: Running for 100000 steps
ETITLE: TS BOND ANGLE DIHED IMPRP ELECT VDW BOUNDARY MISC KINETIC TOTAL TEMP POTENTIAL TOTAL3 TEMPAVG PRESSURE GPRESSURE VOLUME PRESSAVG GPRESSAVG
ENERGY: 400000 0.0000 0.0000 0.0000 0.0000 -13728.1107 2318.2463 0.0000 0.0000 676.1961 -10733.6683 116.9338 -11409.8645 -10732.3520 116.9338 -57.0689 -6.2283 28542.2913 -57.0689 -6.2283
ENERGY: 500000 0.0000 0.0000 0.0000 0.0000 -13438.7050 2194.7009 0.0000 0.0000 868.6615 -10375.3426 150.2166 -11244.0041 -10372.1482 150.0664 -483.2341 -476.2368 28863.3494 3.4271 3.3470
TCL: Running 100000 steps at 180 kelvin.
TCL: Setting parameter langevinTemp to 180
TCL: Running for 100000 steps
ETITLE: TS BOND ANGLE DIHED IMPRP ELECT VDW BOUNDARY MISC KINETIC TOTAL TEMP POTENTIAL TOTAL3 TEMPAVG PRESSURE GPRESSURE VOLUME PRESSAVG GPRESSAVG
ENERGY: 500000 0.0000 0.0000 0.0000 0.0000 -13438.7050 2194.7009 0.0000 0.0000 868.2438 -10375.7604 150.1444 -11244.0041 -10373.7731 150.1444 -530.2099 -476.4713 28863.3494 -530.2099 -476.4713
ENERGY: 600000 0.0000 0.0000 0.0000 0.0000 -12895.0423 2004.7345 0.0000 0.0000 1034.6747 -9855.6331 178.9251 -10890.3078 -9853.7953 180.0041 -766.0091 -736.8152 29011.0745 5.0117 4.9185
TCL: Running 100000 steps at 210 kelvin.
TCL: Setting parameter langevinTemp to 210
TCL: Running for 100000 steps
ETITLE: TS BOND ANGLE DIHED IMPRP ELECT VDW BOUNDARY MISC KINETIC TOTAL TEMP POTENTIAL TOTAL3 TEMPAVG PRESSURE GPRESSURE VOLUME PRESSAVG GPRESSAVG
ENERGY: 600000 0.0000 0.0000 0.0000 0.0000 -12895.0423 2004.7345 0.0000 0.0000 1034.1787 -9856.1291 178.8393 -10890.3078 -9854.1667 178.8393 -801.5943 -735.7910 29011.0745 -801.5943 -735.7910
ENERGY: 700000 0.0000 0.0000 0.0000 0.0000 -12356.0894 1888.7059 0.0000 0.0000 1231.9455 -9235.4380 213.0389 -10467.3836 -9232.2466 209.6150 38.2333 99.4745 28553.7664 3.3591 3.2778
TCL: Running 100000 steps at 240 kelvin.
TCL: Setting parameter langevinTemp to 240
TCL: Running for 100000 steps
ETITLE: TS BOND ANGLE DIHED IMPRP ELECT VDW BOUNDARY MISC KINETIC TOTAL TEMP POTENTIAL TOTAL3 TEMPAVG PRESSURE GPRESSURE VOLUME PRESSAVG GPRESSAVG
ENERGY: 700000 0.0000 0.0000 0.0000 0.0000 -12356.0894 1888.7059 0.0000 0.0000 1231.3350 -9236.0485 212.9333 -10467.3836 -9233.6555 212.9333 17.1712 98.4175 28553.7664 17.1712 98.4175
ENERGY: 800000 0.0000 0.0000 0.0000 0.0000 -11746.7454 1716.2834 0.0000 0.0000 1420.6685 -8609.7935 245.6745 -10030.4620 -8608.3331 239.9412 71.0012 172.3554 28945.5170 3.1446 3.0888
TCL: Running 100000 steps at 270 kelvin.
TCL: Setting parameter langevinTemp to 270
TCL: Running for 100000 steps
ETITLE: TS BOND ANGLE DIHED IMPRP ELECT VDW BOUNDARY MISC KINETIC TOTAL TEMP POTENTIAL TOTAL3 TEMPAVG PRESSURE GPRESSURE VOLUME PRESSAVG GPRESSAVG
ENERGY: 800000 0.0000 0.0000 0.0000 0.0000 -11746.7454 1716.2834 0.0000 0.0000 1419.9942 -8610.4678 245.5579 -10030.4620 -8608.0801 245.5579 67.1700 171.4083 28945.5170 67.1700 171.4083
ENERGY: 900000 0.0000 0.0000 0.0000 0.0000 -11390.7929 1660.1507 0.0000 0.0000 1554.2379 -8176.4043 268.7725 -9730.6422 -8173.6393 269.3703 518.3692 589.8350 29366.8967 4.0048 4.0762
TCL: Running 1000000 steps at 300 kelvin.
TCL: Setting parameter langevinTemp to 300
TCL: Running for 1000000 steps
ETITLE: TS BOND ANGLE DIHED IMPRP ELECT VDW BOUNDARY MISC KINETIC TOTAL TEMP POTENTIAL TOTAL3 TEMPAVG PRESSURE GPRESSURE VOLUME PRESSAVG GPRESSAVG
ENERGY: 900000 0.0000 0.0000 0.0000 0.0000 -11390.7929 1660.1507 0.0000 0.0000 1553.4741 -8177.1682 268.6404 -9730.6422 -8175.0868 268.6404 492.3536 590.2854 29366.8967 492.3536 590.2854
ENERGY: 1100000 0.0000 0.0000 0.0000 0.0000 -10479.8171 1343.9935 0.0000 0.0000 1732.1811 -7403.6425 299.5441 -9135.8237 -7401.0075 300.0181 -644.5669 -544.2220 30599.7011 3.3180 3.3170
ENERGY: 1300000 0.0000 0.0000 0.0000 0.0000 -10637.1976 1400.7420 0.0000 0.0000 1703.0660 -7533.3895 294.5092 -9236.4555 -7530.4404 300.3684 -10.4287 72.0841 29753.4305 2.6903 2.4080
ENERGY: 1500000 0.0000 0.0000 0.0000 0.0000 -10617.1653 1436.2213 0.0000 0.0000 1723.0233 -7457.9207 297.9604 -9180.9440 -7454.4782 300.2426 203.9491 243.3204 30435.3040 2.7721 2.7598
ENERGY: 1700000 0.0000 0.0000 0.0000 0.0000 -10685.2721 1458.2245 0.0000 0.0000 1734.7369 -7492.3106 299.9860 -9227.0476 -7489.5871 299.9019 547.3600 649.4445 29510.7988 2.9806 2.9342
ENERGY: 1900000 0.0000 0.0000 0.0000 0.0000 -10556.4061 1391.7806 0.0000 0.0000 1720.4166 -7444.2089 297.5096 -9164.6255 -7442.0346 300.8718 -207.9560 -155.7643 30235.5312 1.8563 2.0025
TCL: Exiting due to exit command.
