Info: SIMULATION PARAMETERS:
Info: TIMESTEP               2
Info: NUMBER OF STEPS        0
Info: STEPS PER CYCLE        10
Info: PERIODIC CELL BASIS 1  37.38 0 0
Info: PERIODIC CELL BASIS 2  0 35.779 0
Info: PERIODIC CELL BASIS 3  0 0 32.993
Info: PERIODIC CELL CENTER   0 0 0
Info: WRAPPING WATERS AROUND PERIODIC BOUNDARIES ON OUTPUT.
Info: WRAPPING ALL CLUSTERS AROUND PERIODIC BOUNDARIES ON OUTPUT.
Info: FIRST LDB TIMESTEP     50
Info: LAST LDB TIMESTEP     -1
Info: HOM BACKGROUND SCALING 1
Info: PME BACKGROUND SCALING 1
Info: MIN ATOMS PER PATCH    40
Info: EMPTY PATCH LOAD       40 ATOMS
Info: INITIAL TEMPERATURE    300
Info: CENTER OF MASS MOVING INITIALLY? NO
Info: DIELECTRIC             1
Info: EXCLUDE                SCALED ONE-FOUR
Info: 1-4 ELECTROSTATICS SCALED BY 0.833333
Info: MODIFIED 1-4 VDW PARAMETERS WILL BE USED
Info: DCD FILENAME           mobley_8861672_equil.dcd
Info: DCD FREQUENCY          100000
Info: DCD FIRST STEP         100000
Info: DCD FILE WILL CONTAIN UNIT CELL DATA
Info: XST FILENAME           mobley_8861672_equil.xst
Info: XST FREQUENCY          100000
Info: NO VELOCITY DCD OUTPUT
Info: NO FORCE DCD OUTPUT
Info: OUTPUT FILENAME        mobley_8861672_equil
Info: BINARY OUTPUT FILES WILL BE USED
Info: RESTART FILENAME       mobley_8861672_equil.restart
Info: RESTART FREQUENCY      100000
Info: BINARY RESTART FILES WILL BE USED
Info: CUTOFF                 9
Info: PAIRLIST DISTANCE      11
Info: PAIRLIST SHRINK RATE   0.01
Info: PAIRLIST GROW RATE     0.01
Info: PAIRLIST TRIGGER       0.3
Info: PAIRLISTS PER CYCLE    2
Info: PAIRLISTS ENABLED
Info: MARGIN                 8
Info: HYDROGEN GROUP CUTOFF  2.5
Info: PATCH DIMENSION        21.5
Info: ENERGY OUTPUT STEPS    100000
Info: ENERGY EVALUATION STEPS    100000
Info: OUTPUT ENERGY PRECISION 4
Info: CROSSTERM ENERGY INCLUDED IN DIHEDRAL
Info: TIMING OUTPUT STEPS    1000000
Info: PRESSURE OUTPUT STEPS  100000
Info: FIXED ATOMS ACTIVE
Info: LANGEVIN DYNAMICS ACTIVE
Info: LANGEVIN TEMPERATURE   30
Info: LANGEVIN USING BBK INTEGRATOR
Info: LANGEVIN DAMPING COEFFICIENT IS 1 INVERSE PS
Info: LANGEVIN DYNAMICS APPLIED TO HYDROGENS
Info: LANGEVIN PISTON PRESSURE CONTROL ACTIVE
Info:        TARGET PRESSURE IS 1.01325 BAR
Info:     OSCILLATION PERIOD IS 50 FS
Info:             DECAY TIME IS 25 FS
Info:     PISTON TEMPERATURE IS 300 K
Info:       PRESSURE CONTROL IS GROUP-BASED
Info:    INITIAL STRAIN RATE IS 0 0 0
Info:       CELL FLUCTUATION IS ISOTROPIC
Info: PARTICLE MESH EWALD (PME) ACTIVE
Info: PME TOLERANCE               1e-06
Info: PME EWALD COEFFICIENT       0.348832
Info: PME INTERPOLATION ORDER     4
Info: PME GRID DIMENSIONS         40 36 36
Info: PME MAXIMUM GRID SPACING    1
Info: FULL ELECTROSTATIC EVALUATION FREQUENCY      2
Info: USING VERLET I (r-RESPA) MTS SCHEME.
Info: C1 SPLITTING OF LONG RANGE ELECTROSTATICS
Info: PLACING ATOMS IN PATCHES BY HYDROGEN GROUPS
Info: RIGID BONDS TO HYDROGEN : ALL
Info:         ERROR TOLERANCE : 1e-08
Info:          MAX ITERATIONS : 100
Info: RIGID WATER USING SETTLE ALGORITHM
Info: RANDOM NUMBER SEED     1743740166
Info: USE HYDROGEN BONDS?    NO
Info: Using AMBER format force field!
Info: AMBER PARM FILE        mobley_8861672.prmtop
Info: COORDINATE PDB         mobley_8861672.pdb
Info: Exclusions will be read from PARM file!
Info: SCNB (VDW SCALING)     2
Info: USING ARITHMETIC MEAN TO COMBINE L-J SIGMA PARAMETERS
Info: BINARY COORDINATES     mobley_8861672_min.coor
Info: SUMMARY OF PARAMETERS:
Info: 8 BONDS
Info: 10 ANGLES
Info:   10 HARMONIC
Info:   0 COSINE-BASED
Info: 4 DIHEDRAL
Info: 0 IMPROPER
Info: 0 CROSSTERM
Info: 0 VDW
Info: 36 VDW_PAIRS
Info: 0 NBTHOLE_PAIRS
Info: STRUCTURE SUMMARY:
Info: 2921 ATOMS
Info: 2921 BONDS
Info: 28 ANGLES
Info: 37 DIHEDRALS
Info: 0 IMPROPERS
Info: 0 CROSSTERMS
Info: 2978 EXCLUSIONS
Info: 17 FIXED ATOMS
Info: 2913 RIGID BONDS
Info: 9 RIGID BONDS BETWEEN FIXED ATOMS
Info: 5808 DEGREES OF FREEDOM
Info: 976 HYDROGEN GROUPS
Info: 4 ATOMS IN LARGEST HYDROGEN GROUP
Info: 976 MIGRATION GROUPS
Info: 4 ATOMS IN LARGEST MIGRATION GROUP
Info: 8 HYDROGEN GROUPS WITH ALL ATOMS FIXED
Info: TOTAL MASS = 17546.6 amu
Info: TOTAL CHARGE = -9.99793e-05 e
Info: MASS DENSITY = 0.660334 g/cm^3
Info: ATOM DENSITY = 0.0661976 atoms/A^3
Info: ADDED 0 IMPLICIT EXCLUSIONS
Info: NONBONDED TABLE R-SQUARED SPACING: 0.0625
Info: NONBONDED TABLE SIZE: 705 POINTS
Info: REMOVING COM VELOCITY 0.195832 0.0044932 0.023459
TCL: Running for 100000 steps
ETITLE: TS BOND ANGLE DIHED IMPRP ELECT VDW BOUNDARY MISC KINETIC TOTAL TEMP POTENTIAL TOTAL3 TEMPAVG PRESSURE GPRESSURE VOLUME PRESSAVG GPRESSAVG
ENERGY: 0 0.0000 0.0000 0.0000 0.0000 -13520.1228 2344.3234 0.0000 0.0000 1735.5181 -9440.2813 300.7412 -11175.7994 -9439.9347 300.7412 368.3073 402.0597 44125.4657 368.3073 402.0597
ENERGY: 100000 0.0000 0.0000 0.0000 0.0000 -13974.4090 2271.4102 0.0000 0.0000 169.4442 -11533.5546 29.3623 -11702.9987 -11532.8555 30.8868 -1494.9507 -1465.6077 28907.0262 3.9379 3.9135
TCL: Running 100000 steps at 60 kelvin.
TCL: Setting parameter langevinTemp to 60
TCL: Running for 100000 steps
ETITLE: TS BOND ANGLE DIHED IMPRP ELECT VDW BOUNDARY MISC KINETIC TOTAL TEMP POTENTIAL TOTAL3 TEMPAVG PRESSURE GPRESSURE VOLUME PRESSAVG GPRESSAVG
ENERGY: 100000 0.0000 0.0000 0.0000 0.0000 -13974.4090 2271.4102 0.0000 0.0000 169.3584 -11533.6404 29.3475 -11702.9987 -11533.1657 29.3475 -1512.9350 -1465.6099 28907.0262 -1512.9350 -1465.6099
ENERGY: 200000 0.0000 0.0000 0.0000 0.0000 -13946.0973 2338.8950 0.0000 0.0000 349.5140 -11257.6883 60.5659 -11607.2023 -11256.8571 60.0345 -550.6214 -490.7473 28692.5416 3.7890 3.8300
TCL: Running 100000 steps at 90 kelvin.
TCL: Setting parameter langevinTemp to 90
TCL: Running for 100000 steps
ETITLE: TS BOND ANGLE DIHED IMPRP ELECT VDW BOUNDARY MISC KINETIC TOTAL TEMP POTENTIAL TOTAL3 TEMPAVG PRESSURE GPRESSURE VOLUME PRESSAVG GPRESSAVG
ENERGY: 200000 0.0000 0.0000 0.0000 0.0000 -13946.0973 2338.8950 0.0000 0.0000 349.3369 -11257.8654 60.5352 -11607.2023 -11257.2577 60.5352 -563.3830 -490.6619 28692.5416 -563.3830 -490.6619
ENERGY: 300000 0.0000 0.0000 0.0000 0.0000 -13879.3872 2358.0549 0.0000 0.0000 519.7710 -11001.5613 90.0691 -11521.3323 -10999.5240 90.0550 -52.4799 -27.6648 28491.5475 3.6570 3.5946
TCL: Running 100000 steps at 120 kelvin.
TCL: Setting parameter langevinTemp to 120
TCL: Running for 100000 steps
ETITLE: TS BOND ANGLE DIHED IMPRP ELECT VDW BOUNDARY MISC KINETIC TOTAL TEMP POTENTIAL TOTAL3 TEMPAVG PRESSURE GPRESSURE VOLUME PRESSAVG GPRESSAVG
ENERGY: 300000 0.0000 0.0000 0.0000 0.0000 -13879.3872 2358.0549 0.0000 0.0000 519.5251 -11001.8072 90.0265 -11521.3323 -11000.5818 90.0265 -81.6667 -27.3700 28491.5475 -81.6667 -27.3700
ENERGY: 400000 0.0000 0.0000 0.0000 0.0000 -13571.8473 2195.6063 0.0000 0.0000 718.3366 -10657.9044 124.4778 -11376.2410 -10657.1329 119.8931 -1017.4265 -942.8489 28884.6101 5.3421 5.2721
TCL: Running 100000 steps at 150 kelvin.
TCL: Setting parameter langevinTemp to 150
TCL: Running for 100000 steps
ETITLE: TS BOND ANGLE DIHED IMPRP ELECT VDW BOUNDARY MISC KINETIC TOTAL TEMP POTENTIAL TOTAL3 TEMPAVG PRESSURE GPRESSURE VOLUME PRESSAVG GPRESSAVG
ENERGY: 400000 0.0000 0.0000 0.0000 0.0000 -13571.8473 2195.6063 0.0000 0.0000 717.9846 -10658.2563 124.4168 -11376.2410 -10656.9506 124.4168 -1005.2954 -943.0821 28884.6101 -1005.2954 -943.0821
ENERGY: 500000 0.0000 0.0000 0.0000 0.0000 -13568.3470 2321.4303 0.0000 0.0000 877.9221 -10368.9946 152.1317 -11246.9167 -10367.6066 150.1112 733.9789 719.6273 28468.7323 4.4341 4.3879
TCL: Running 100000 steps at 180 kelvin.
TCL: Setting parameter langevinTemp to 180
TCL: Running for 100000 steps
ETITLE: TS BOND ANGLE DIHED IMPRP ELECT VDW BOUNDARY MISC KINETIC TOTAL TEMP POTENTIAL TOTAL3 TEMPAVG PRESSURE GPRESSURE VOLUME PRESSAVG GPRESSAVG
ENERGY: 500000 0.0000 0.0000 0.0000 0.0000 -13568.3470 2321.4303 0.0000 0.0000 877.4933 -10369.4234 152.0574 -11246.9167 -10367.6471 152.0574 676.2741 718.9367 28468.7323 676.2741 718.9367
ENERGY: 600000 0.0000 0.0000 0.0000 0.0000 -12964.8647 2020.1670 0.0000 0.0000 1058.0790 -9886.6187 183.3504 -10944.6977 -9884.5378 179.8222 -406.9895 -379.2076 28365.2298 4.9039 4.7280
TCL: Running 100000 steps at 210 kelvin.
TCL: Setting parameter langevinTemp to 210
TCL: Running for 100000 steps
ETITLE: TS BOND ANGLE DIHED IMPRP ELECT VDW BOUNDARY MISC KINETIC TOTAL TEMP POTENTIAL TOTAL3 TEMPAVG PRESSURE GPRESSURE VOLUME PRESSAVG GPRESSAVG
ENERGY: 600000 0.0000 0.0000 0.0000 0.0000 -12964.8647 2020.1670 0.0000 0.0000 1057.5652 -9887.1324 183.2614 -10944.6977 -9885.1345 183.2614 -441.9445 -380.5666 28365.2298 -441.9445 -380.5666
ENERGY: 700000 0.0000 0.0000 0.0000 0.0000 -12300.3884 1823.6041 0.0000 0.0000 1214.4402 -9262.3442 210.4456 -10476.7844 -9260.4866 209.9263 -549.1013 -498.8973 28817.6964 4.7746 4.6179
TCL: Running 100000 steps at 240 kelvin.
TCL: Setting parameter langevinTemp to 240
TCL: Running for 100000 steps
ETITLE: TS BOND ANGLE DIHED IMPRP ELECT VDW BOUNDARY MISC KINETIC TOTAL TEMP POTENTIAL TOTAL3 TEMPAVG PRESSURE GPRESSURE VOLUME PRESSAVG GPRESSAVG
ENERGY: 700000 0.0000 0.0000 0.0000 0.0000 -12300.3884 1823.6041 0.0000 0.0000 1213.8268 -9262.9576 210.3393 -10476.7844 -9260.8985 210.3393 -590.3246 -500.1996 28817.6964 -590.3246 -500.1996
ENERGY: 800000 0.0000 0.0000 0.0000 0.0000 -11665.2982 1603.3912 0.0000 0.0000 1414.0102 -8647.8968 245.0283 -10061.9070 -8645.7479 240.3907 -928.0235 -859.3779 28970.4201 5.2543 5.0495
TCL: Running 100000 steps at 270 kelvin.
TCL: Setting parameter langevinTemp to 270
TCL: Running for 100000 steps
ETITLE: TS BOND ANGLE DIHED IMPRP ELECT VDW BOUNDARY MISC KINETIC TOTAL TEMP POTENTIAL TOTAL3 TEMPAVG PRESSURE GPRESSURE VOLUME PRESSAVG GPRESSAVG
ENERGY: 800000 0.0000 0.0000 0.0000 0.0000 -11665.2982 1603.3912 0.0000 0.0000 1413.3389 -8648.5680 244.9120 -10061.9070 -8646.0576 244.9120 -954.5951 -860.8363 28970.4201 -954.5951 -860.8363
ENERGY: 900000 0.0000 0.0000 0.0000 0.0000 -11064.9802 1484.3809 0.0000 0.0000 1515.5615 -8065.0378 262.6258 -9580.5993 -8060.1830 269.5385 -388.0844 -290.5115 29431.7270 3.3009 3.0996
TCL: Running 1000000 steps at 300 kelvin.
TCL: Setting parameter langevinTemp to 300
TCL: Running for 1000000 steps
ETITLE: TS BOND ANGLE DIHED IMPRP ELECT VDW BOUNDARY MISC KINETIC TOTAL TEMP POTENTIAL TOTAL3 TEMPAVG PRESSURE GPRESSURE VOLUME PRESSAVG GPRESSAVG
ENERGY: 900000 0.0000 0.0000 0.0000 0.0000 -11064.9802 1484.3809 0.0000 0.0000 1514.8055 -8065.7938 262.4948 -9580.5993 -8063.4000 262.4948 -381.1466 -290.0251 29431.7270 -381.1466 -290.0251
ENERGY: 1100000 0.0000 0.0000 0.0000 0.0000 -10687.0375 1456.4272 0.0000 0.0000 1715.4298 -7515.1806 297.2602 -9230.6103 -7511.8546 300.5496 331.1913 348.5903 30179.2173 3.7045 3.7801
ENERGY: 1300000 0.0000 0.0000 0.0000 0.0000 -10665.5673 1425.5619 0.0000 0.0000 1710.8498 -7529.1555 296.4665 -9240.0053 -7525.8277 300.0218 92.2003 181.5209 29826.8693 3.6249 3.7277
ENERGY: 1500000 0.0000 0.0000 0.0000 0.0000 -10654.5752 1363.6306 0.0000 0.0000 1714.8694 -7576.0752 297.1631 -9290.9446 -7573.3196 300.4753 -424.1246 -329.0832 29698.4544 3.2479 3.1804
ENERGY: 1700000 0.0000 0.0000 0.0000 0.0000 -10600.4567 1332.7837 0.0000 0.0000 1744.9805 -7522.6925 302.3809 -9267.6730 -7518.9017 300.5554 -950.4271 -861.4935 30293.4912 4.8846 4.9386
ENERGY: 1900000 0.0000 0.0000 0.0000 0.0000 -10739.8410 1508.0815 0.0000 0.0000 1752.4717 -7479.2878 303.6790 -9231.7595 -7476.1161 300.4800 726.8152 826.3868 29957.7027 2.6785 2.5641
TCL: Exiting due to exit command.
