Info: SIMULATION PARAMETERS:
Info: TIMESTEP               2
Info: NUMBER OF STEPS        0
Info: STEPS PER CYCLE        10
Info: PERIODIC CELL BASIS 1  36.592 0 0
Info: PERIODIC CELL BASIS 2  0 34.696 0
Info: PERIODIC CELL BASIS 3  0 0 34.68
Info: PERIODIC CELL CENTER   0 0 0
Info: WRAPPING WATERS AROUND PERIODIC BOUNDARIES ON OUTPUT.
Info: WRAPPING ALL CLUSTERS AROUND PERIODIC BOUNDARIES ON OUTPUT.
Info: FIRST LDB TIMESTEP     50
Info: LAST LDB TIMESTEP     -1
Info: HOM BACKGROUND SCALING 1
Info: PME BACKGROUND SCALING 1
Info: MIN ATOMS PER PATCH    40
Info: EMPTY PATCH LOAD       40 ATOMS
Info: INITIAL TEMPERATURE    300
Info: CENTER OF MASS MOVING INITIALLY? NO
Info: DIELECTRIC             1
Info: EXCLUDE                SCALED ONE-FOUR
Info: 1-4 ELECTROSTATICS SCALED BY 0.833333
Info: MODIFIED 1-4 VDW PARAMETERS WILL BE USED
Info: DCD FILENAME           mobley_8427539_equil.dcd
Info: DCD FREQUENCY          100000
Info: DCD FIRST STEP         100000
Info: DCD FILE WILL CONTAIN UNIT CELL DATA
Info: XST FILENAME           mobley_8427539_equil.xst
Info: XST FREQUENCY          100000
Info: NO VELOCITY DCD OUTPUT
Info: NO FORCE DCD OUTPUT
Info: OUTPUT FILENAME        mobley_8427539_equil
Info: BINARY OUTPUT FILES WILL BE USED
Info: RESTART FILENAME       mobley_8427539_equil.restart
Info: RESTART FREQUENCY      100000
Info: BINARY RESTART FILES WILL BE USED
Info: CUTOFF                 9
Info: PAIRLIST DISTANCE      11
Info: PAIRLIST SHRINK RATE   0.01
Info: PAIRLIST GROW RATE     0.01
Info: PAIRLIST TRIGGER       0.3
Info: PAIRLISTS PER CYCLE    2
Info: PAIRLISTS ENABLED
Info: MARGIN                 8
Info: HYDROGEN GROUP CUTOFF  2.5
Info: PATCH DIMENSION        21.5
Info: ENERGY OUTPUT STEPS    100000
Info: ENERGY EVALUATION STEPS    100000
Info: OUTPUT ENERGY PRECISION 4
Info: CROSSTERM ENERGY INCLUDED IN DIHEDRAL
Info: TIMING OUTPUT STEPS    1000000
Info: PRESSURE OUTPUT STEPS  100000
Info: FIXED ATOMS ACTIVE
Info: LANGEVIN DYNAMICS ACTIVE
Info: LANGEVIN TEMPERATURE   30
Info: LANGEVIN USING BBK INTEGRATOR
Info: LANGEVIN DAMPING COEFFICIENT IS 1 INVERSE PS
Info: LANGEVIN DYNAMICS APPLIED TO HYDROGENS
Info: LANGEVIN PISTON PRESSURE CONTROL ACTIVE
Info:        TARGET PRESSURE IS 1.01325 BAR
Info:     OSCILLATION PERIOD IS 50 FS
Info:             DECAY TIME IS 25 FS
Info:     PISTON TEMPERATURE IS 300 K
Info:       PRESSURE CONTROL IS GROUP-BASED
Info:    INITIAL STRAIN RATE IS 0 0 0
Info:       CELL FLUCTUATION IS ISOTROPIC
Info: PARTICLE MESH EWALD (PME) ACTIVE
Info: PME TOLERANCE               1e-06
Info: PME EWALD COEFFICIENT       0.348832
Info: PME INTERPOLATION ORDER     4
Info: PME GRID DIMENSIONS         40 36 36
Info: PME MAXIMUM GRID SPACING    1
Info: FULL ELECTROSTATIC EVALUATION FREQUENCY      2
Info: USING VERLET I (r-RESPA) MTS SCHEME.
Info: C1 SPLITTING OF LONG RANGE ELECTROSTATICS
Info: PLACING ATOMS IN PATCHES BY HYDROGEN GROUPS
Info: RIGID BONDS TO HYDROGEN : ALL
Info:         ERROR TOLERANCE : 1e-08
Info:          MAX ITERATIONS : 100
Info: RIGID WATER USING SETTLE ALGORITHM
Info: RANDOM NUMBER SEED     1744720971
Info: USE HYDROGEN BONDS?    NO
Info: Using AMBER format force field!
Info: AMBER PARM FILE        mobley_8427539.prmtop
Info: COORDINATE PDB         mobley_8427539.pdb
Info: Exclusions will be read from PARM file!
Info: SCNB (VDW SCALING)     2
Info: USING ARITHMETIC MEAN TO COMBINE L-J SIGMA PARAMETERS
Info: BINARY COORDINATES     mobley_8427539_min.coor
Info: SUMMARY OF PARAMETERS:
Info: 8 BONDS
Info: 9 ANGLES
Info:   9 HARMONIC
Info:   0 COSINE-BASED
Info: 12 DIHEDRAL
Info: 0 IMPROPER
Info: 0 CROSSTERM
Info: 0 VDW
Info: 36 VDW_PAIRS
Info: 0 NBTHOLE_PAIRS
Info: STRUCTURE SUMMARY:
Info: 2928 ATOMS
Info: 2927 BONDS
Info: 18 ANGLES
Info: 28 DIHEDRALS
Info: 0 IMPROPERS
Info: 0 CROSSTERMS
Info: 2964 EXCLUSIONS
Info: 12 FIXED ATOMS
Info: 2923 RIGID BONDS
Info: 7 RIGID BONDS BETWEEN FIXED ATOMS
Info: 5832 DEGREES OF FREEDOM
Info: 977 HYDROGEN GROUPS
Info: 4 ATOMS IN LARGEST HYDROGEN GROUP
Info: 977 MIGRATION GROUPS
Info: 4 ATOMS IN LARGEST MIGRATION GROUP
Info: 5 HYDROGEN GROUPS WITH ALL ATOMS FIXED
Info: TOTAL MASS = 17584.6 amu
Info: TOTAL CHARGE = 0.00019991 e
Info: MASS DENSITY = 0.663206 g/cm^3
Info: ATOM DENSITY = 0.0665007 atoms/A^3
Info: ADDED 0 IMPLICIT EXCLUSIONS
Info: NONBONDED TABLE R-SQUARED SPACING: 0.0625
Info: NONBONDED TABLE SIZE: 705 POINTS
Info: REMOVING COM VELOCITY 0.175557 0.167235 -0.104633
TCL: Running for 100000 steps
ETITLE: TS BOND ANGLE DIHED IMPRP ELECT VDW BOUNDARY MISC KINETIC TOTAL TEMP POTENTIAL TOTAL3 TEMPAVG PRESSURE GPRESSURE VOLUME PRESSAVG GPRESSAVG
ENERGY: 0 0.0000 0.0000 0.0000 0.0000 -13678.3160 2386.4298 0.0000 0.0000 1778.9231 -9512.9630 306.9941 -11291.8861 -9512.5724 306.9941 420.8835 455.0439 44029.5904 420.8835 455.0439
ENERGY: 100000 0.0000 0.0000 0.0000 0.0000 -14061.5873 2365.8602 0.0000 0.0000 167.4215 -11528.3056 28.8924 -11695.7271 -11527.6569 30.8427 -771.5417 -745.3671 30013.5079 4.1154 4.0541
TCL: Running 100000 steps at 60 kelvin.
TCL: Setting parameter langevinTemp to 60
TCL: Running for 100000 steps
ETITLE: TS BOND ANGLE DIHED IMPRP ELECT VDW BOUNDARY MISC KINETIC TOTAL TEMP POTENTIAL TOTAL3 TEMPAVG PRESSURE GPRESSURE VOLUME PRESSAVG GPRESSAVG
ENERGY: 100000 0.0000 0.0000 0.0000 0.0000 -14061.5873 2365.8602 0.0000 0.0000 167.3311 -11528.3959 28.8768 -11695.7271 -11527.9662 28.8768 -788.2204 -745.2070 30013.5079 -788.2204 -745.2070
ENERGY: 200000 0.0000 0.0000 0.0000 0.0000 -14038.3522 2367.0565 0.0000 0.0000 342.4607 -11328.8350 59.0995 -11671.2957 -11328.1833 60.0409 -492.3828 -421.0761 29332.4772 2.9456 3.0380
TCL: Running 100000 steps at 90 kelvin.
TCL: Setting parameter langevinTemp to 90
TCL: Running for 100000 steps
ETITLE: TS BOND ANGLE DIHED IMPRP ELECT VDW BOUNDARY MISC KINETIC TOTAL TEMP POTENTIAL TOTAL3 TEMPAVG PRESSURE GPRESSURE VOLUME PRESSAVG GPRESSAVG
ENERGY: 200000 0.0000 0.0000 0.0000 0.0000 -14038.3522 2367.0565 0.0000 0.0000 342.2966 -11328.9991 59.0712 -11671.2957 -11328.3659 59.0712 -474.0478 -421.3176 29332.4772 -474.0478 -421.3176
ENERGY: 300000 0.0000 0.0000 0.0000 0.0000 -13957.8663 2367.8396 0.0000 0.0000 509.4944 -11080.5323 87.9250 -11590.0267 -11079.3112 90.1726 -114.4522 -26.2443 28972.8553 3.9941 4.1831
TCL: Running 100000 steps at 120 kelvin.
TCL: Setting parameter langevinTemp to 120
TCL: Running for 100000 steps
ETITLE: TS BOND ANGLE DIHED IMPRP ELECT VDW BOUNDARY MISC KINETIC TOTAL TEMP POTENTIAL TOTAL3 TEMPAVG PRESSURE GPRESSURE VOLUME PRESSAVG GPRESSAVG
ENERGY: 300000 0.0000 0.0000 0.0000 0.0000 -13957.8663 2367.8396 0.0000 0.0000 509.2344 -11080.7923 87.8801 -11590.0267 -11079.8643 87.8801 -83.2283 -26.0429 28972.8553 -83.2283 -26.0429
ENERGY: 400000 0.0000 0.0000 0.0000 0.0000 -13886.7408 2389.8867 0.0000 0.0000 687.2012 -10809.6528 118.5924 -11496.8540 -10808.2635 119.8731 647.5598 655.8685 28601.3891 3.5225 3.4302
TCL: Running 100000 steps at 150 kelvin.
TCL: Setting parameter langevinTemp to 150
TCL: Running for 100000 steps
ETITLE: TS BOND ANGLE DIHED IMPRP ELECT VDW BOUNDARY MISC KINETIC TOTAL TEMP POTENTIAL TOTAL3 TEMPAVG PRESSURE GPRESSURE VOLUME PRESSAVG GPRESSAVG
ENERGY: 400000 0.0000 0.0000 0.0000 0.0000 -13886.7408 2389.8867 0.0000 0.0000 686.8538 -10810.0003 118.5324 -11496.8540 -10808.5905 118.5324 607.2389 655.0787 28601.3891 607.2389 655.0787
ENERGY: 500000 0.0000 0.0000 0.0000 0.0000 -13575.0977 2271.0298 0.0000 0.0000 873.4551 -10430.6127 150.7348 -11304.0678 -10428.3224 150.0995 6.9145 76.3883 29137.6643 4.2293 4.2082
TCL: Running 100000 steps at 180 kelvin.
TCL: Setting parameter langevinTemp to 180
TCL: Running for 100000 steps
ETITLE: TS BOND ANGLE DIHED IMPRP ELECT VDW BOUNDARY MISC KINETIC TOTAL TEMP POTENTIAL TOTAL3 TEMPAVG PRESSURE GPRESSURE VOLUME PRESSAVG GPRESSAVG
ENERGY: 500000 0.0000 0.0000 0.0000 0.0000 -13575.0977 2271.0298 0.0000 0.0000 873.0338 -10431.0340 150.6621 -11304.0678 -10429.3509 150.6621 31.2701 77.5935 29137.6643 31.2701 77.5935
ENERGY: 600000 0.0000 0.0000 0.0000 0.0000 -13056.5660 2020.4947 0.0000 0.0000 1066.0935 -9969.9778 183.9790 -11036.0713 -9967.1922 179.8969 -887.0332 -825.1052 28841.0790 3.6217 3.7297
TCL: Running 100000 steps at 210 kelvin.
TCL: Setting parameter langevinTemp to 210
TCL: Running for 100000 steps
ETITLE: TS BOND ANGLE DIHED IMPRP ELECT VDW BOUNDARY MISC KINETIC TOTAL TEMP POTENTIAL TOTAL3 TEMPAVG PRESSURE GPRESSURE VOLUME PRESSAVG GPRESSAVG
ENERGY: 600000 0.0000 0.0000 0.0000 0.0000 -13056.5660 2020.4947 0.0000 0.0000 1065.5906 -9970.4808 183.8922 -11036.0713 -9968.3729 183.8922 -884.5773 -823.5412 28841.0790 -884.5773 -823.5412
ENERGY: 700000 0.0000 0.0000 0.0000 0.0000 -12445.8479 1899.2145 0.0000 0.0000 1244.8006 -9301.8328 214.8190 -10546.6334 -9300.4109 210.2070 134.3003 287.1101 28346.3217 3.1597 3.0456
TCL: Running 100000 steps at 240 kelvin.
TCL: Setting parameter langevinTemp to 240
TCL: Running for 100000 steps
ETITLE: TS BOND ANGLE DIHED IMPRP ELECT VDW BOUNDARY MISC KINETIC TOTAL TEMP POTENTIAL TOTAL3 TEMPAVG PRESSURE GPRESSURE VOLUME PRESSAVG GPRESSAVG
ENERGY: 700000 0.0000 0.0000 0.0000 0.0000 -12445.8479 1899.2145 0.0000 0.0000 1244.2082 -9302.4252 214.7168 -10546.6334 -9300.3009 214.7168 206.5059 285.2359 28346.3217 206.5059 285.2359
ENERGY: 800000 0.0000 0.0000 0.0000 0.0000 -11829.4310 1689.1466 0.0000 0.0000 1379.2922 -8760.9921 238.0286 -10140.2843 -8759.5677 240.0159 -319.3466 -236.2757 28896.3847 4.4385 4.5592
TCL: Running 100000 steps at 270 kelvin.
TCL: Setting parameter langevinTemp to 270
TCL: Running for 100000 steps
ETITLE: TS BOND ANGLE DIHED IMPRP ELECT VDW BOUNDARY MISC KINETIC TOTAL TEMP POTENTIAL TOTAL3 TEMPAVG PRESSURE GPRESSURE VOLUME PRESSAVG GPRESSAVG
ENERGY: 800000 0.0000 0.0000 0.0000 0.0000 -11829.4310 1689.1466 0.0000 0.0000 1378.5955 -8761.6888 237.9084 -10140.2843 -8759.2539 237.9084 -325.4629 -239.3358 28896.3847 -325.4629 -239.3358
ENERGY: 900000 0.0000 0.0000 0.0000 0.0000 -11175.4924 1476.5605 0.0000 0.0000 1578.4051 -8120.5268 272.3901 -9698.9319 -8114.6670 270.7302 -717.5460 -661.5913 29474.3656 2.5651 2.6761
TCL: Running 1000000 steps at 300 kelvin.
TCL: Setting parameter langevinTemp to 300
TCL: Running for 1000000 steps
ETITLE: TS BOND ANGLE DIHED IMPRP ELECT VDW BOUNDARY MISC KINETIC TOTAL TEMP POTENTIAL TOTAL3 TEMPAVG PRESSURE GPRESSURE VOLUME PRESSAVG GPRESSAVG
ENERGY: 900000 0.0000 0.0000 0.0000 0.0000 -11175.4924 1476.5605 0.0000 0.0000 1577.6554 -8121.2765 272.2607 -9698.9319 -8118.4080 272.2607 -740.4272 -660.2006 29474.3656 -740.4272 -660.2006
ENERGY: 1100000 0.0000 0.0000 0.0000 0.0000 -10701.8695 1455.8935 0.0000 0.0000 1735.2273 -7510.7487 299.4534 -9245.9760 -7510.8628 301.1547 342.6270 437.2897 29899.2359 4.2907 4.2305
ENERGY: 1300000 0.0000 0.0000 0.0000 0.0000 -10866.4103 1512.3953 0.0000 0.0000 1735.4507 -7618.5643 299.4920 -9354.0150 -7614.1427 300.2441 784.6514 904.3317 29470.5157 3.7150 3.7248
ENERGY: 1500000 0.0000 0.0000 0.0000 0.0000 -10842.9699 1483.4370 0.0000 0.0000 1769.7297 -7589.8032 305.4076 -9359.5329 -7586.3354 300.1443 317.7590 419.8486 29667.5622 2.5678 2.3806
ENERGY: 1700000 0.0000 0.0000 0.0000 0.0000 -10556.1015 1293.9936 0.0000 0.0000 1737.5964 -7524.5116 299.8622 -9262.1079 -7519.9418 300.7955 -931.6665 -789.5714 30046.1813 3.1328 3.0332
ENERGY: 1900000 0.0000 0.0000 0.0000 0.0000 -10705.1128 1434.2889 0.0000 0.0000 1715.4864 -7555.3375 296.0467 -9270.8239 -7550.5226 299.9717 -133.3567 -48.9293 30599.9822 3.3929 3.5050
TCL: Exiting due to exit command.
