Info: SIMULATION PARAMETERS:
Info: TIMESTEP               2
Info: NUMBER OF STEPS        0
Info: STEPS PER CYCLE        10
Info: PERIODIC CELL BASIS 1  36.005 0 0
Info: PERIODIC CELL BASIS 2  0 35.411 0
Info: PERIODIC CELL BASIS 3  0 0 34.471
Info: PERIODIC CELL CENTER   0 0 0
Info: WRAPPING WATERS AROUND PERIODIC BOUNDARIES ON OUTPUT.
Info: WRAPPING ALL CLUSTERS AROUND PERIODIC BOUNDARIES ON OUTPUT.
Info: FIRST LDB TIMESTEP     50
Info: LAST LDB TIMESTEP     -1
Info: HOM BACKGROUND SCALING 1
Info: PME BACKGROUND SCALING 1
Info: MIN ATOMS PER PATCH    40
Info: EMPTY PATCH LOAD       40 ATOMS
Info: INITIAL TEMPERATURE    300
Info: CENTER OF MASS MOVING INITIALLY? NO
Info: DIELECTRIC             1
Info: EXCLUDE                SCALED ONE-FOUR
Info: 1-4 ELECTROSTATICS SCALED BY 0.833333
Info: MODIFIED 1-4 VDW PARAMETERS WILL BE USED
Info: DCD FILENAME           mobley_6091882_equil.dcd
Info: DCD FREQUENCY          100000
Info: DCD FIRST STEP         100000
Info: DCD FILE WILL CONTAIN UNIT CELL DATA
Info: XST FILENAME           mobley_6091882_equil.xst
Info: XST FREQUENCY          100000
Info: NO VELOCITY DCD OUTPUT
Info: NO FORCE DCD OUTPUT
Info: OUTPUT FILENAME        mobley_6091882_equil
Info: BINARY OUTPUT FILES WILL BE USED
Info: RESTART FILENAME       mobley_6091882_equil.restart
Info: RESTART FREQUENCY      100000
Info: BINARY RESTART FILES WILL BE USED
Info: CUTOFF                 9
Info: PAIRLIST DISTANCE      11
Info: PAIRLIST SHRINK RATE   0.01
Info: PAIRLIST GROW RATE     0.01
Info: PAIRLIST TRIGGER       0.3
Info: PAIRLISTS PER CYCLE    2
Info: PAIRLISTS ENABLED
Info: MARGIN                 8
Info: HYDROGEN GROUP CUTOFF  2.5
Info: PATCH DIMENSION        21.5
Info: ENERGY OUTPUT STEPS    100000
Info: ENERGY EVALUATION STEPS    100000
Info: OUTPUT ENERGY PRECISION 4
Info: CROSSTERM ENERGY INCLUDED IN DIHEDRAL
Info: TIMING OUTPUT STEPS    1000000
Info: PRESSURE OUTPUT STEPS  100000
Info: FIXED ATOMS ACTIVE
Info: LANGEVIN DYNAMICS ACTIVE
Info: LANGEVIN TEMPERATURE   30
Info: LANGEVIN USING BBK INTEGRATOR
Info: LANGEVIN DAMPING COEFFICIENT IS 1 INVERSE PS
Info: LANGEVIN DYNAMICS APPLIED TO HYDROGENS
Info: LANGEVIN PISTON PRESSURE CONTROL ACTIVE
Info:        TARGET PRESSURE IS 1.01325 BAR
Info:     OSCILLATION PERIOD IS 50 FS
Info:             DECAY TIME IS 25 FS
Info:     PISTON TEMPERATURE IS 300 K
Info:       PRESSURE CONTROL IS GROUP-BASED
Info:    INITIAL STRAIN RATE IS 0 0 0
Info:       CELL FLUCTUATION IS ISOTROPIC
Info: PARTICLE MESH EWALD (PME) ACTIVE
Info: PME TOLERANCE               1e-06
Info: PME EWALD COEFFICIENT       0.348832
Info: PME INTERPOLATION ORDER     4
Info: PME GRID DIMENSIONS         40 36 36
Info: PME MAXIMUM GRID SPACING    1
Info: FULL ELECTROSTATIC EVALUATION FREQUENCY      2
Info: USING VERLET I (r-RESPA) MTS SCHEME.
Info: C1 SPLITTING OF LONG RANGE ELECTROSTATICS
Info: PLACING ATOMS IN PATCHES BY HYDROGEN GROUPS
Info: RIGID BONDS TO HYDROGEN : ALL
Info:         ERROR TOLERANCE : 1e-08
Info:          MAX ITERATIONS : 100
Info: RIGID WATER USING SETTLE ALGORITHM
Info: RANDOM NUMBER SEED     1743679364
Info: USE HYDROGEN BONDS?    NO
Info: Using AMBER format force field!
Info: AMBER PARM FILE        mobley_6091882.prmtop
Info: COORDINATE PDB         mobley_6091882.pdb
Info: Exclusions will be read from PARM file!
Info: SCNB (VDW SCALING)     2
Info: USING ARITHMETIC MEAN TO COMBINE L-J SIGMA PARAMETERS
Info: BINARY COORDINATES     mobley_6091882_min.coor
Info: SUMMARY OF PARAMETERS:
Info: 4 BONDS
Info: 2 ANGLES
Info:   2 HARMONIC
Info:   0 COSINE-BASED
Info: 2 DIHEDRAL
Info: 0 IMPROPER
Info: 0 CROSSTERM
Info: 0 VDW
Info: 10 VDW_PAIRS
Info: 0 NBTHOLE_PAIRS
Info: STRUCTURE SUMMARY:
Info: 2904 ATOMS
Info: 2903 BONDS
Info: 6 ANGLES
Info: 6 DIHEDRALS
Info: 0 IMPROPERS
Info: 0 CROSSTERMS
Info: 2913 EXCLUSIONS
Info: 6 FIXED ATOMS
Info: 2902 RIGID BONDS
Info: 4 RIGID BONDS BETWEEN FIXED ATOMS
Info: 5796 DEGREES OF FREEDOM
Info: 968 HYDROGEN GROUPS
Info: 3 ATOMS IN LARGEST HYDROGEN GROUP
Info: 968 MIGRATION GROUPS
Info: 3 ATOMS IN LARGEST MIGRATION GROUP
Info: 2 HYDROGEN GROUPS WITH ALL ATOMS FIXED
Info: TOTAL MASS = 17431.5 amu
Info: TOTAL CHARGE = 0.000100002 e
Info: MASS DENSITY = 0.658627 g/cm^3
Info: ATOM DENSITY = 0.0660757 atoms/A^3
Info: ADDED 0 IMPLICIT EXCLUSIONS
Info: NONBONDED TABLE R-SQUARED SPACING: 0.0625
Info: NONBONDED TABLE SIZE: 705 POINTS
Info: REMOVING COM VELOCITY -0.0988961 0.230225 -0.0149386
TCL: Running for 100000 steps
ETITLE: TS BOND ANGLE DIHED IMPRP ELECT VDW BOUNDARY MISC KINETIC TOTAL TEMP POTENTIAL TOTAL3 TEMPAVG PRESSURE GPRESSURE VOLUME PRESSAVG GPRESSAVG
ENERGY: 0 0.0000 0.0000 0.0000 0.0000 -13497.7861 2372.7944 0.0000 0.0000 1679.6733 -9445.3184 291.6667 -11124.9917 -9445.0052 291.6667 402.9832 435.8399 43949.5962 402.9832 435.8399
ENERGY: 100000 0.0000 0.0000 0.0000 0.0000 -14023.2288 2466.3970 0.0000 0.0000 171.3834 -11385.4484 29.7599 -11556.8318 -11385.1913 30.8313 462.3960 541.4070 28062.4812 3.4921 3.4832
TCL: Running 100000 steps at 60 kelvin.
TCL: Setting parameter langevinTemp to 60
TCL: Running for 100000 steps
ETITLE: TS BOND ANGLE DIHED IMPRP ELECT VDW BOUNDARY MISC KINETIC TOTAL TEMP POTENTIAL TOTAL3 TEMPAVG PRESSURE GPRESSURE VOLUME PRESSAVG GPRESSAVG
ENERGY: 100000 0.0000 0.0000 0.0000 0.0000 -14023.2288 2466.3970 0.0000 0.0000 171.2982 -11385.5336 29.7451 -11556.8318 -11385.2289 29.7451 473.5272 541.1777 28062.4812 473.5272 541.1777
ENERGY: 200000 0.0000 0.0000 0.0000 0.0000 -13893.2003 2384.9038 0.0000 0.0000 341.6498 -11166.6467 59.3257 -11508.2965 -11165.6017 59.8826 -70.2639 -1.1089 28210.6285 3.3297 3.3321
TCL: Running 100000 steps at 90 kelvin.
TCL: Setting parameter langevinTemp to 90
TCL: Running for 100000 steps
ETITLE: TS BOND ANGLE DIHED IMPRP ELECT VDW BOUNDARY MISC KINETIC TOTAL TEMP POTENTIAL TOTAL3 TEMPAVG PRESSURE GPRESSURE VOLUME PRESSAVG GPRESSAVG
ENERGY: 200000 0.0000 0.0000 0.0000 0.0000 -13893.2003 2384.9038 0.0000 0.0000 341.4840 -11166.8125 59.2969 -11508.2965 -11166.1585 59.2969 -55.9134 -1.0574 28210.6285 -55.9134 -1.0574
ENERGY: 300000 0.0000 0.0000 0.0000 0.0000 -13804.5241 2364.3424 0.0000 0.0000 524.7494 -10915.4323 91.1201 -11440.1817 -10913.9854 89.9278 -120.4245 -43.1437 28369.2160 2.5431 2.7096
TCL: Running 100000 steps at 120 kelvin.
TCL: Setting parameter langevinTemp to 120
TCL: Running for 100000 steps
ETITLE: TS BOND ANGLE DIHED IMPRP ELECT VDW BOUNDARY MISC KINETIC TOTAL TEMP POTENTIAL TOTAL3 TEMPAVG PRESSURE GPRESSURE VOLUME PRESSAVG GPRESSAVG
ENERGY: 300000 0.0000 0.0000 0.0000 0.0000 -13804.5241 2364.3424 0.0000 0.0000 524.4816 -10915.7001 91.0735 -11440.1817 -10914.7640 91.0735 -92.7587 -42.7649 28369.2160 -92.7587 -42.7649
ENERGY: 400000 0.0000 0.0000 0.0000 0.0000 -13642.3706 2329.4371 0.0000 0.0000 682.6664 -10630.2670 118.5415 -11312.9335 -10628.7060 120.0134 -74.6757 -0.5883 28642.2500 2.7429 2.8658
TCL: Running 100000 steps at 150 kelvin.
TCL: Setting parameter langevinTemp to 150
TCL: Running for 100000 steps
ETITLE: TS BOND ANGLE DIHED IMPRP ELECT VDW BOUNDARY MISC KINETIC TOTAL TEMP POTENTIAL TOTAL3 TEMPAVG PRESSURE GPRESSURE VOLUME PRESSAVG GPRESSAVG
ENERGY: 400000 0.0000 0.0000 0.0000 0.0000 -13642.3706 2329.4371 0.0000 0.0000 682.3139 -10630.6196 118.4803 -11312.9335 -10629.1538 118.4803 -55.9081 -0.8666 28642.2500 -55.9081 -0.8666
ENERGY: 500000 0.0000 0.0000 0.0000 0.0000 -13361.7113 2200.9145 0.0000 0.0000 870.2832 -10290.5136 151.1202 -11160.7968 -10288.5957 149.9246 -418.7189 -390.5780 28537.5121 4.3996 4.4583
TCL: Running 100000 steps at 180 kelvin.
TCL: Setting parameter langevinTemp to 180
TCL: Running for 100000 steps
ETITLE: TS BOND ANGLE DIHED IMPRP ELECT VDW BOUNDARY MISC KINETIC TOTAL TEMP POTENTIAL TOTAL3 TEMPAVG PRESSURE GPRESSURE VOLUME PRESSAVG GPRESSAVG
ENERGY: 500000 0.0000 0.0000 0.0000 0.0000 -13361.7113 2200.9145 0.0000 0.0000 869.8745 -10290.9224 151.0493 -11160.7968 -10289.3111 151.0493 -452.1913 -390.8299 28537.5121 -452.1913 -390.8299
ENERGY: 600000 0.0000 0.0000 0.0000 0.0000 -12910.8897 2124.4463 0.0000 0.0000 1023.0451 -9763.3982 177.6466 -10786.4433 -9761.5455 179.8159 467.6216 542.1692 28328.3673 4.0892 4.0317
TCL: Running 100000 steps at 210 kelvin.
TCL: Setting parameter langevinTemp to 210
TCL: Running for 100000 steps
ETITLE: TS BOND ANGLE DIHED IMPRP ELECT VDW BOUNDARY MISC KINETIC TOTAL TEMP POTENTIAL TOTAL3 TEMPAVG PRESSURE GPRESSURE VOLUME PRESSAVG GPRESSAVG
ENERGY: 600000 0.0000 0.0000 0.0000 0.0000 -12910.8897 2124.4463 0.0000 0.0000 1022.5128 -9763.9305 177.5541 -10786.4433 -9762.1904 177.5541 473.0133 541.5912 28328.3673 473.0133 541.5912
ENERGY: 700000 0.0000 0.0000 0.0000 0.0000 -12165.1056 1830.7521 0.0000 0.0000 1187.4835 -9146.8701 206.2004 -10334.3535 -9144.7720 210.3548 -319.9123 -230.1440 28528.5217 4.1040 4.0767
TCL: Running 100000 steps at 240 kelvin.
TCL: Setting parameter langevinTemp to 240
TCL: Running for 100000 steps
ETITLE: TS BOND ANGLE DIHED IMPRP ELECT VDW BOUNDARY MISC KINETIC TOTAL TEMP POTENTIAL TOTAL3 TEMPAVG PRESSURE GPRESSURE VOLUME PRESSAVG GPRESSAVG
ENERGY: 700000 0.0000 0.0000 0.0000 0.0000 -12165.1056 1830.7521 0.0000 0.0000 1186.8811 -9147.4725 206.0958 -10334.3535 -9145.2275 206.0958 -307.3589 -230.2255 28528.5217 -307.3589 -230.2255
ENERGY: 800000 0.0000 0.0000 0.0000 0.0000 -11591.6118 1698.4334 0.0000 0.0000 1370.4663 -8522.7121 237.9745 -9893.1784 -8520.2479 239.5881 213.5303 315.8821 28470.4761 2.5773 2.4693
TCL: Running 100000 steps at 270 kelvin.
TCL: Setting parameter langevinTemp to 270
TCL: Running for 100000 steps
ETITLE: TS BOND ANGLE DIHED IMPRP ELECT VDW BOUNDARY MISC KINETIC TOTAL TEMP POTENTIAL TOTAL3 TEMPAVG PRESSURE GPRESSURE VOLUME PRESSAVG GPRESSAVG
ENERGY: 800000 0.0000 0.0000 0.0000 0.0000 -11591.6118 1698.4334 0.0000 0.0000 1369.7487 -8523.4297 237.8499 -9893.1784 -8521.0333 237.8499 250.5252 314.5983 28470.4761 250.5252 314.5983
ENERGY: 900000 0.0000 0.0000 0.0000 0.0000 -10996.8882 1465.6782 0.0000 0.0000 1598.4286 -7932.7814 277.5590 -9531.2100 -7927.2114 270.4839 -773.6947 -703.2632 29381.1665 3.6673 3.7106
TCL: Running 1000000 steps at 300 kelvin.
TCL: Setting parameter langevinTemp to 300
TCL: Running for 1000000 steps
ETITLE: TS BOND ANGLE DIHED IMPRP ELECT VDW BOUNDARY MISC KINETIC TOTAL TEMP POTENTIAL TOTAL3 TEMPAVG PRESSURE GPRESSURE VOLUME PRESSAVG GPRESSAVG
ENERGY: 900000 0.0000 0.0000 0.0000 0.0000 -10996.8882 1465.6782 0.0000 0.0000 1597.6386 -7933.5714 277.4218 -9531.2100 -7931.1937 277.4218 -800.7799 -700.5508 29381.1665 -800.7799 -700.5508
ENERGY: 1100000 0.0000 0.0000 0.0000 0.0000 -10567.2010 1425.6876 0.0000 0.0000 1685.8886 -7455.6248 292.7459 -9141.5134 -7454.0678 300.8517 100.5719 168.9974 29782.2020 3.0709 3.1706
ENERGY: 1300000 0.0000 0.0000 0.0000 0.0000 -10381.7864 1279.7362 0.0000 0.0000 1714.7618 -7387.2884 297.7596 -9102.0502 -7385.6763 300.0376 -1171.7615 -1072.1722 30390.3757 3.0406 3.2364
ENERGY: 1500000 0.0000 0.0000 0.0000 0.0000 -10564.2334 1404.4308 0.0000 0.0000 1776.6338 -7383.1688 308.5034 -9159.8026 -7380.1494 300.2536 -42.5201 38.3375 29674.2106 3.7332 3.6842
ENERGY: 1700000 0.0000 0.0000 0.0000 0.0000 -10551.6556 1378.1009 0.0000 0.0000 1675.0004 -7498.5543 290.8553 -9173.5547 -7496.8036 300.4357 -518.1147 -403.8679 30014.8052 4.2624 4.0110
ENERGY: 1900000 0.0000 0.0000 0.0000 0.0000 -10673.1480 1469.7091 0.0000 0.0000 1725.7285 -7477.7103 299.6639 -9203.4388 -7475.0944 300.4921 -6.2418 58.8865 30126.9086 3.6291 3.4680
TCL: Exiting due to exit command.
