Info: SIMULATION PARAMETERS:
Info: TIMESTEP               2
Info: NUMBER OF STEPS        0
Info: STEPS PER CYCLE        10
Info: PERIODIC CELL BASIS 1  37.968 0 0
Info: PERIODIC CELL BASIS 2  0 35.411 0
Info: PERIODIC CELL BASIS 3  0 0 31.855
Info: PERIODIC CELL CENTER   0 0 0
Info: WRAPPING WATERS AROUND PERIODIC BOUNDARIES ON OUTPUT.
Info: WRAPPING ALL CLUSTERS AROUND PERIODIC BOUNDARIES ON OUTPUT.
Info: FIRST LDB TIMESTEP     50
Info: LAST LDB TIMESTEP     -1
Info: HOM BACKGROUND SCALING 1
Info: PME BACKGROUND SCALING 1
Info: MIN ATOMS PER PATCH    40
Info: EMPTY PATCH LOAD       40 ATOMS
Info: INITIAL TEMPERATURE    300
Info: CENTER OF MASS MOVING INITIALLY? NO
Info: DIELECTRIC             1
Info: EXCLUDE                SCALED ONE-FOUR
Info: 1-4 ELECTROSTATICS SCALED BY 0.833333
Info: MODIFIED 1-4 VDW PARAMETERS WILL BE USED
Info: DCD FILENAME           mobley_6175884_equil.dcd
Info: DCD FREQUENCY          100000
Info: DCD FIRST STEP         100000
Info: DCD FILE WILL CONTAIN UNIT CELL DATA
Info: XST FILENAME           mobley_6175884_equil.xst
Info: XST FREQUENCY          100000
Info: NO VELOCITY DCD OUTPUT
Info: NO FORCE DCD OUTPUT
Info: OUTPUT FILENAME        mobley_6175884_equil
Info: BINARY OUTPUT FILES WILL BE USED
Info: RESTART FILENAME       mobley_6175884_equil.restart
Info: RESTART FREQUENCY      100000
Info: BINARY RESTART FILES WILL BE USED
Info: CUTOFF                 9
Info: PAIRLIST DISTANCE      11
Info: PAIRLIST SHRINK RATE   0.01
Info: PAIRLIST GROW RATE     0.01
Info: PAIRLIST TRIGGER       0.3
Info: PAIRLISTS PER CYCLE    2
Info: PAIRLISTS ENABLED
Info: MARGIN                 8
Info: HYDROGEN GROUP CUTOFF  2.5
Info: PATCH DIMENSION        21.5
Info: ENERGY OUTPUT STEPS    100000
Info: ENERGY EVALUATION STEPS    100000
Info: OUTPUT ENERGY PRECISION 4
Info: CROSSTERM ENERGY INCLUDED IN DIHEDRAL
Info: TIMING OUTPUT STEPS    1000000
Info: PRESSURE OUTPUT STEPS  100000
Info: FIXED ATOMS ACTIVE
Info: LANGEVIN DYNAMICS ACTIVE
Info: LANGEVIN TEMPERATURE   30
Info: LANGEVIN USING BBK INTEGRATOR
Info: LANGEVIN DAMPING COEFFICIENT IS 1 INVERSE PS
Info: LANGEVIN DYNAMICS APPLIED TO HYDROGENS
Info: LANGEVIN PISTON PRESSURE CONTROL ACTIVE
Info:        TARGET PRESSURE IS 1.01325 BAR
Info:     OSCILLATION PERIOD IS 50 FS
Info:             DECAY TIME IS 25 FS
Info:     PISTON TEMPERATURE IS 300 K
Info:       PRESSURE CONTROL IS GROUP-BASED
Info:    INITIAL STRAIN RATE IS 0 0 0
Info:       CELL FLUCTUATION IS ISOTROPIC
Info: PARTICLE MESH EWALD (PME) ACTIVE
Info: PME TOLERANCE               1e-06
Info: PME EWALD COEFFICIENT       0.348832
Info: PME INTERPOLATION ORDER     4
Info: PME GRID DIMENSIONS         40 36 32
Info: PME MAXIMUM GRID SPACING    1
Info: FULL ELECTROSTATIC EVALUATION FREQUENCY      2
Info: USING VERLET I (r-RESPA) MTS SCHEME.
Info: C1 SPLITTING OF LONG RANGE ELECTROSTATICS
Info: PLACING ATOMS IN PATCHES BY HYDROGEN GROUPS
Info: RIGID BONDS TO HYDROGEN : ALL
Info:         ERROR TOLERANCE : 1e-08
Info:          MAX ITERATIONS : 100
Info: RIGID WATER USING SETTLE ALGORITHM
Info: RANDOM NUMBER SEED     1744086829
Info: USE HYDROGEN BONDS?    NO
Info: Using AMBER format force field!
Info: AMBER PARM FILE        mobley_6175884.prmtop
Info: COORDINATE PDB         mobley_6175884.pdb
Info: Exclusions will be read from PARM file!
Info: SCNB (VDW SCALING)     2
Info: USING ARITHMETIC MEAN TO COMBINE L-J SIGMA PARAMETERS
Info: BINARY COORDINATES     mobley_6175884_min.coor
Info: SUMMARY OF PARAMETERS:
Info: 9 BONDS
Info: 9 ANGLES
Info:   9 HARMONIC
Info:   0 COSINE-BASED
Info: 5 DIHEDRAL
Info: 0 IMPROPER
Info: 0 CROSSTERM
Info: 0 VDW
Info: 36 VDW_PAIRS
Info: 0 NBTHOLE_PAIRS
Info: STRUCTURE SUMMARY:
Info: 2963 ATOMS
Info: 2963 BONDS
Info: 27 ANGLES
Info: 41 DIHEDRALS
Info: 0 IMPROPERS
Info: 0 CROSSTERMS
Info: 3021 EXCLUSIONS
Info: 17 FIXED ATOMS
Info: 2954 RIGID BONDS
Info: 8 RIGID BONDS BETWEEN FIXED ATOMS
Info: 5892 DEGREES OF FREEDOM
Info: 991 HYDROGEN GROUPS
Info: 4 ATOMS IN LARGEST HYDROGEN GROUP
Info: 991 MIGRATION GROUPS
Info: 4 ATOMS IN LARGEST MIGRATION GROUP
Info: 9 HYDROGEN GROUPS WITH ALL ATOMS FIXED
Info: TOTAL MASS = 17811.9 amu
Info: TOTAL CHARGE = 0.000200024 e
Info: MASS DENSITY = 0.690613 g/cm^3
Info: ATOM DENSITY = 0.0691828 atoms/A^3
Info: ADDED 0 IMPLICIT EXCLUSIONS
Info: NONBONDED TABLE R-SQUARED SPACING: 0.0625
Info: NONBONDED TABLE SIZE: 705 POINTS
Info: REMOVING COM VELOCITY -0.0839693 0.0289913 0.0438344
TCL: Running for 100000 steps
ETITLE: TS BOND ANGLE DIHED IMPRP ELECT VDW BOUNDARY MISC KINETIC TOTAL TEMP POTENTIAL TOTAL3 TEMPAVG PRESSURE GPRESSURE VOLUME PRESSAVG GPRESSAVG
ENERGY: 0 0.0000 0.0000 0.0000 0.0000 -13763.3068 2414.4031 0.0000 0.0000 1728.2867 -9620.6170 295.2184 -11348.9037 -9620.2541 295.2184 338.3199 366.1854 42828.5648 338.3199 366.1854
ENERGY: 100000 0.0000 0.0000 0.0000 0.0000 -14435.3868 2557.6038 0.0000 0.0000 176.7553 -11701.0278 30.1926 -11877.7831 -11700.5388 30.9402 894.5383 943.2930 28214.3189 3.5300 3.5264
TCL: Running 100000 steps at 60 kelvin.
TCL: Setting parameter langevinTemp to 60
TCL: Running for 100000 steps
ETITLE: TS BOND ANGLE DIHED IMPRP ELECT VDW BOUNDARY MISC KINETIC TOTAL TEMP POTENTIAL TOTAL3 TEMPAVG PRESSURE GPRESSURE VOLUME PRESSAVG GPRESSAVG
ENERGY: 100000 0.0000 0.0000 0.0000 0.0000 -14435.3868 2557.6038 0.0000 0.0000 176.6599 -11701.1232 30.1763 -11877.7831 -11700.7423 30.1763 902.7035 943.4813 28214.3189 902.7035 943.4813
ENERGY: 200000 0.0000 0.0000 0.0000 0.0000 -14333.9534 2531.7791 0.0000 0.0000 346.2388 -11455.9354 59.1430 -11802.1743 -11455.0010 59.9213 955.0602 970.8809 28194.1426 3.7395 3.7642
TCL: Running 100000 steps at 90 kelvin.
TCL: Setting parameter langevinTemp to 90
TCL: Running for 100000 steps
ETITLE: TS BOND ANGLE DIHED IMPRP ELECT VDW BOUNDARY MISC KINETIC TOTAL TEMP POTENTIAL TOTAL3 TEMPAVG PRESSURE GPRESSURE VOLUME PRESSAVG GPRESSAVG
ENERGY: 200000 0.0000 0.0000 0.0000 0.0000 -14333.9534 2531.7791 0.0000 0.0000 346.0624 -11456.1119 59.1129 -11802.1743 -11455.3900 59.1129 935.6528 971.1685 28194.1426 935.6528 971.1685
ENERGY: 300000 0.0000 0.0000 0.0000 0.0000 -14078.5826 2396.0522 0.0000 0.0000 543.8684 -11138.6619 92.9012 -11682.5303 -11137.1128 89.7590 102.6508 137.1085 28633.0383 5.1261 5.1034
TCL: Running 100000 steps at 120 kelvin.
TCL: Setting parameter langevinTemp to 120
TCL: Running for 100000 steps
ETITLE: TS BOND ANGLE DIHED IMPRP ELECT VDW BOUNDARY MISC KINETIC TOTAL TEMP POTENTIAL TOTAL3 TEMPAVG PRESSURE GPRESSURE VOLUME PRESSAVG GPRESSAVG
ENERGY: 300000 0.0000 0.0000 0.0000 0.0000 -14078.5826 2396.0522 0.0000 0.0000 543.6042 -11138.9262 92.8561 -11682.5303 -11137.7868 92.8561 86.0826 136.7576 28633.0383 86.0826 136.7576
ENERGY: 400000 0.0000 0.0000 0.0000 0.0000 -13868.7402 2310.9815 0.0000 0.0000 717.2497 -10840.5090 122.5175 -11557.7587 -10838.6561 120.0305 -221.1126 -254.7094 28958.1766 4.1699 4.1718
TCL: Running 100000 steps at 150 kelvin.
TCL: Setting parameter langevinTemp to 150
TCL: Running for 100000 steps
ETITLE: TS BOND ANGLE DIHED IMPRP ELECT VDW BOUNDARY MISC KINETIC TOTAL TEMP POTENTIAL TOTAL3 TEMPAVG PRESSURE GPRESSURE VOLUME PRESSAVG GPRESSAVG
ENERGY: 400000 0.0000 0.0000 0.0000 0.0000 -13868.7402 2310.9815 0.0000 0.0000 716.8842 -10840.8745 122.4550 -11557.7587 -10839.1506 122.4550 -305.7536 -255.3725 28958.1766 -305.7536 -255.3725
ENERGY: 500000 0.0000 0.0000 0.0000 0.0000 -13596.1464 2230.0675 0.0000 0.0000 860.3073 -10505.7716 146.9539 -11366.0789 -10503.4681 149.7004 -225.3017 -186.0527 28943.2575 2.8876 2.7713
TCL: Running 100000 steps at 180 kelvin.
TCL: Setting parameter langevinTemp to 180
TCL: Running for 100000 steps
ETITLE: TS BOND ANGLE DIHED IMPRP ELECT VDW BOUNDARY MISC KINETIC TOTAL TEMP POTENTIAL TOTAL3 TEMPAVG PRESSURE GPRESSURE VOLUME PRESSAVG GPRESSAVG
ENERGY: 500000 0.0000 0.0000 0.0000 0.0000 -13596.1464 2230.0675 0.0000 0.0000 859.8550 -10506.2239 146.8767 -11366.0789 -10504.3203 146.8767 -230.2585 -185.5120 28943.2575 -230.2585 -185.5120
ENERGY: 600000 0.0000 0.0000 0.0000 0.0000 -13088.0709 2071.3618 0.0000 0.0000 1061.1259 -9955.5831 181.2569 -11016.7091 -9951.2999 180.1955 23.0334 134.3111 28660.4753 3.3055 3.2219
TCL: Running 100000 steps at 210 kelvin.
TCL: Setting parameter langevinTemp to 210
TCL: Running for 100000 steps
ETITLE: TS BOND ANGLE DIHED IMPRP ELECT VDW BOUNDARY MISC KINETIC TOTAL TEMP POTENTIAL TOTAL3 TEMPAVG PRESSURE GPRESSURE VOLUME PRESSAVG GPRESSAVG
ENERGY: 600000 0.0000 0.0000 0.0000 0.0000 -13088.0709 2071.3618 0.0000 0.0000 1060.5900 -9956.1190 181.1654 -11016.7091 -9954.2166 181.1654 52.0397 134.8479 28660.4753 52.0397 134.8479
ENERGY: 700000 0.0000 0.0000 0.0000 0.0000 -12476.3879 1874.1081 0.0000 0.0000 1279.0540 -9323.2258 218.4824 -10602.2798 -9318.7226 209.9183 -134.3689 -60.6614 28816.0720 3.7420 3.8158
TCL: Running 100000 steps at 240 kelvin.
TCL: Setting parameter langevinTemp to 240
TCL: Running for 100000 steps
ETITLE: TS BOND ANGLE DIHED IMPRP ELECT VDW BOUNDARY MISC KINETIC TOTAL TEMP POTENTIAL TOTAL3 TEMPAVG PRESSURE GPRESSURE VOLUME PRESSAVG GPRESSAVG
ENERGY: 700000 0.0000 0.0000 0.0000 0.0000 -12476.3879 1874.1081 0.0000 0.0000 1278.4596 -9323.8203 218.3809 -10602.2798 -9321.4162 218.3809 -130.1987 -61.0532 28816.0720 -130.1987 -61.0532
ENERGY: 800000 0.0000 0.0000 0.0000 0.0000 -11721.3483 1587.2168 0.0000 0.0000 1376.8498 -8757.2817 235.1875 -10134.1315 -8755.7353 240.4173 -1298.8254 -1190.0466 29801.0297 3.9231 4.0230
TCL: Running 100000 steps at 270 kelvin.
TCL: Setting parameter langevinTemp to 270
TCL: Running for 100000 steps
ETITLE: TS BOND ANGLE DIHED IMPRP ELECT VDW BOUNDARY MISC KINETIC TOTAL TEMP POTENTIAL TOTAL3 TEMPAVG PRESSURE GPRESSURE VOLUME PRESSAVG GPRESSAVG
ENERGY: 800000 0.0000 0.0000 0.0000 0.0000 -11721.3483 1587.2168 0.0000 0.0000 1376.1298 -8758.0017 235.0645 -10134.1315 -8755.4460 235.0645 -1275.2566 -1192.4402 29801.0297 -1275.2566 -1192.4402
ENERGY: 900000 0.0000 0.0000 0.0000 0.0000 -11289.2138 1541.1325 0.0000 0.0000 1606.2963 -8141.7850 274.3805 -9748.0814 -8137.3331 270.0558 -360.2804 -298.4929 30031.1516 2.6886 2.6457
TCL: Running 1000000 steps at 300 kelvin.
TCL: Setting parameter langevinTemp to 300
TCL: Running for 1000000 steps
ETITLE: TS BOND ANGLE DIHED IMPRP ELECT VDW BOUNDARY MISC KINETIC TOTAL TEMP POTENTIAL TOTAL3 TEMPAVG PRESSURE GPRESSURE VOLUME PRESSAVG GPRESSAVG
ENERGY: 900000 0.0000 0.0000 0.0000 0.0000 -11289.2138 1541.1325 0.0000 0.0000 1605.4824 -8142.5990 274.2415 -9748.0814 -8140.3322 274.2415 -371.7954 -298.2147 30031.1516 -371.7954 -298.2147
ENERGY: 1100000 0.0000 0.0000 0.0000 0.0000 -10958.3182 1523.6376 0.0000 0.0000 1746.4939 -7688.1867 298.3285 -9434.6806 -7683.6522 300.7360 296.7039 403.5490 30524.3203 2.1472 1.8709
ENERGY: 1300000 0.0000 0.0000 0.0000 0.0000 -10756.8253 1409.6265 0.0000 0.0000 1710.4360 -7636.7627 292.1692 -9347.1988 -7634.8422 300.0697 -349.1178 -257.5905 30498.5386 2.8549 2.7732
ENERGY: 1500000 0.0000 0.0000 0.0000 0.0000 -10764.0912 1398.8605 0.0000 0.0000 1706.2418 -7658.9890 291.4528 -9365.2307 -7653.9550 300.0945 -360.0822 -319.5058 30668.5377 2.3617 2.6083
ENERGY: 1700000 0.0000 0.0000 0.0000 0.0000 -10755.9467 1384.8273 0.0000 0.0000 1748.7630 -7622.3565 298.7161 -9371.1195 -7618.4728 300.1721 -636.9082 -579.0825 30560.7854 3.4393 3.2252
ENERGY: 1900000 0.0000 0.0000 0.0000 0.0000 -10841.6742 1458.3792 0.0000 0.0000 1761.8012 -7621.4938 300.9432 -9383.2950 -7618.7942 300.3011 -53.0289 49.0541 30657.0039 3.4743 3.4297
TCL: Exiting due to exit command.
