Info: SIMULATION PARAMETERS:
Info: TIMESTEP               2
Info: NUMBER OF STEPS        0
Info: STEPS PER CYCLE        10
Info: PERIODIC CELL BASIS 1  36.592 0 0
Info: PERIODIC CELL BASIS 2  0 34.457 0
Info: PERIODIC CELL BASIS 3  0 0 34.954
Info: PERIODIC CELL CENTER   0 0 0
Info: WRAPPING WATERS AROUND PERIODIC BOUNDARIES ON OUTPUT.
Info: WRAPPING ALL CLUSTERS AROUND PERIODIC BOUNDARIES ON OUTPUT.
Info: FIRST LDB TIMESTEP     50
Info: LAST LDB TIMESTEP     -1
Info: HOM BACKGROUND SCALING 1
Info: PME BACKGROUND SCALING 1
Info: MIN ATOMS PER PATCH    40
Info: EMPTY PATCH LOAD       40 ATOMS
Info: INITIAL TEMPERATURE    300
Info: CENTER OF MASS MOVING INITIALLY? NO
Info: DIELECTRIC             1
Info: EXCLUDE                SCALED ONE-FOUR
Info: 1-4 ELECTROSTATICS SCALED BY 0.833333
Info: MODIFIED 1-4 VDW PARAMETERS WILL BE USED
Info: DCD FILENAME           mobley_525934_equil.dcd
Info: DCD FREQUENCY          100000
Info: DCD FIRST STEP         100000
Info: DCD FILE WILL CONTAIN UNIT CELL DATA
Info: XST FILENAME           mobley_525934_equil.xst
Info: XST FREQUENCY          100000
Info: NO VELOCITY DCD OUTPUT
Info: NO FORCE DCD OUTPUT
Info: OUTPUT FILENAME        mobley_525934_equil
Info: BINARY OUTPUT FILES WILL BE USED
Info: RESTART FILENAME       mobley_525934_equil.restart
Info: RESTART FREQUENCY      100000
Info: BINARY RESTART FILES WILL BE USED
Info: CUTOFF                 9
Info: PAIRLIST DISTANCE      11
Info: PAIRLIST SHRINK RATE   0.01
Info: PAIRLIST GROW RATE     0.01
Info: PAIRLIST TRIGGER       0.3
Info: PAIRLISTS PER CYCLE    2
Info: PAIRLISTS ENABLED
Info: MARGIN                 8
Info: HYDROGEN GROUP CUTOFF  2.5
Info: PATCH DIMENSION        21.5
Info: ENERGY OUTPUT STEPS    100000
Info: ENERGY EVALUATION STEPS    100000
Info: OUTPUT ENERGY PRECISION 4
Info: CROSSTERM ENERGY INCLUDED IN DIHEDRAL
Info: TIMING OUTPUT STEPS    1000000
Info: PRESSURE OUTPUT STEPS  100000
Info: FIXED ATOMS ACTIVE
Info: LANGEVIN DYNAMICS ACTIVE
Info: LANGEVIN TEMPERATURE   30
Info: LANGEVIN USING BBK INTEGRATOR
Info: LANGEVIN DAMPING COEFFICIENT IS 1 INVERSE PS
Info: LANGEVIN DYNAMICS APPLIED TO HYDROGENS
Info: LANGEVIN PISTON PRESSURE CONTROL ACTIVE
Info:        TARGET PRESSURE IS 1.01325 BAR
Info:     OSCILLATION PERIOD IS 50 FS
Info:             DECAY TIME IS 25 FS
Info:     PISTON TEMPERATURE IS 300 K
Info:       PRESSURE CONTROL IS GROUP-BASED
Info:    INITIAL STRAIN RATE IS 0 0 0
Info:       CELL FLUCTUATION IS ISOTROPIC
Info: PARTICLE MESH EWALD (PME) ACTIVE
Info: PME TOLERANCE               1e-06
Info: PME EWALD COEFFICIENT       0.348832
Info: PME INTERPOLATION ORDER     4
Info: PME GRID DIMENSIONS         40 36 36
Info: PME MAXIMUM GRID SPACING    1
Info: FULL ELECTROSTATIC EVALUATION FREQUENCY      2
Info: USING VERLET I (r-RESPA) MTS SCHEME.
Info: C1 SPLITTING OF LONG RANGE ELECTROSTATICS
Info: PLACING ATOMS IN PATCHES BY HYDROGEN GROUPS
Info: RIGID BONDS TO HYDROGEN : ALL
Info:         ERROR TOLERANCE : 1e-08
Info:          MAX ITERATIONS : 100
Info: RIGID WATER USING SETTLE ALGORITHM
Info: RANDOM NUMBER SEED     1743674702
Info: USE HYDROGEN BONDS?    NO
Info: Using AMBER format force field!
Info: AMBER PARM FILE        mobley_525934.prmtop
Info: COORDINATE PDB         mobley_525934.pdb
Info: Exclusions will be read from PARM file!
Info: SCNB (VDW SCALING)     2
Info: USING ARITHMETIC MEAN TO COMBINE L-J SIGMA PARAMETERS
Info: BINARY COORDINATES     mobley_525934_min.coor
Info: SUMMARY OF PARAMETERS:
Info: 5 BONDS
Info: 3 ANGLES
Info:   3 HARMONIC
Info:   0 COSINE-BASED
Info: 1 DIHEDRAL
Info: 0 IMPROPER
Info: 0 CROSSTERM
Info: 0 VDW
Info: 21 VDW_PAIRS
Info: 0 NBTHOLE_PAIRS
Info: STRUCTURE SUMMARY:
Info: 2946 ATOMS
Info: 2945 BONDS
Info: 7 ANGLES
Info: 3 DIHEDRALS
Info: 0 IMPROPERS
Info: 0 CROSSTERMS
Info: 2955 EXCLUSIONS
Info: 6 FIXED ATOMS
Info: 2944 RIGID BONDS
Info: 4 RIGID BONDS BETWEEN FIXED ATOMS
Info: 5880 DEGREES OF FREEDOM
Info: 982 HYDROGEN GROUPS
Info: 4 ATOMS IN LARGEST HYDROGEN GROUP
Info: 982 MIGRATION GROUPS
Info: 4 ATOMS IN LARGEST MIGRATION GROUP
Info: 2 HYDROGEN GROUPS WITH ALL ATOMS FIXED
Info: TOTAL MASS = 17703.8 amu
Info: TOTAL CHARGE = 1.86265e-08 e
Info: MASS DENSITY = 0.66706 g/cm^3
Info: ATOM DENSITY = 0.0668455 atoms/A^3
Info: ADDED 0 IMPLICIT EXCLUSIONS
Info: NONBONDED TABLE R-SQUARED SPACING: 0.0625
Info: NONBONDED TABLE SIZE: 705 POINTS
Info: REMOVING COM VELOCITY 0.0858997 -0.000536445 -0.000136274
TCL: Running for 100000 steps
ETITLE: TS BOND ANGLE DIHED IMPRP ELECT VDW BOUNDARY MISC KINETIC TOTAL TEMP POTENTIAL TOTAL3 TEMPAVG PRESSURE GPRESSURE VOLUME PRESSAVG GPRESSAVG
ENERGY: 0 0.0000 0.0000 0.0000 0.0000 -13632.5881 2384.7687 0.0000 0.0000 1767.2580 -9480.5614 302.4914 -11247.8194 -9480.2262 302.4914 437.2078 469.2803 44071.7699 437.2078 469.2803
ENERGY: 100000 0.0000 0.0000 0.0000 0.0000 -14351.7278 2630.8133 0.0000 0.0000 176.4528 -11544.4618 30.2024 -11720.9146 -11543.9748 30.9089 1283.3467 1316.0572 28902.4544 4.9066 4.8802
TCL: Running 100000 steps at 60 kelvin.
TCL: Setting parameter langevinTemp to 60
TCL: Running for 100000 steps
ETITLE: TS BOND ANGLE DIHED IMPRP ELECT VDW BOUNDARY MISC KINETIC TOTAL TEMP POTENTIAL TOTAL3 TEMPAVG PRESSURE GPRESSURE VOLUME PRESSAVG GPRESSAVG
ENERGY: 100000 0.0000 0.0000 0.0000 0.0000 -14351.7278 2630.8133 0.0000 0.0000 176.3676 -11544.5470 30.1878 -11720.9146 -11544.2792 30.1878 1270.5141 1316.0428 28902.4544 1270.5141 1316.0428
ENERGY: 200000 0.0000 0.0000 0.0000 0.0000 -14354.0459 2643.5003 0.0000 0.0000 342.0265 -11368.5191 58.5427 -11710.5457 -11367.5821 60.2214 1581.3670 1621.5535 28669.2435 3.5490 3.5386
TCL: Running 100000 steps at 90 kelvin.
TCL: Setting parameter langevinTemp to 90
TCL: Running for 100000 steps
ETITLE: TS BOND ANGLE DIHED IMPRP ELECT VDW BOUNDARY MISC KINETIC TOTAL TEMP POTENTIAL TOTAL3 TEMPAVG PRESSURE GPRESSURE VOLUME PRESSAVG GPRESSAVG
ENERGY: 200000 0.0000 0.0000 0.0000 0.0000 -14354.0459 2643.5003 0.0000 0.0000 341.8607 -11368.6850 58.5143 -11710.5457 -11367.9642 58.5143 1573.2346 1621.4501 28669.2435 1573.2346 1621.4501
ENERGY: 300000 0.0000 0.0000 0.0000 0.0000 -13961.5115 2376.7632 0.0000 0.0000 533.0822 -11051.6661 91.2446 -11584.7483 -11049.8994 89.9229 -232.1406 -195.1048 29004.0285 4.4850 4.6032
TCL: Running 100000 steps at 120 kelvin.
TCL: Setting parameter langevinTemp to 120
TCL: Running for 100000 steps
ETITLE: TS BOND ANGLE DIHED IMPRP ELECT VDW BOUNDARY MISC KINETIC TOTAL TEMP POTENTIAL TOTAL3 TEMPAVG PRESSURE GPRESSURE VOLUME PRESSAVG GPRESSAVG
ENERGY: 300000 0.0000 0.0000 0.0000 0.0000 -13961.5115 2376.7632 0.0000 0.0000 532.8290 -11051.9193 91.2013 -11584.7483 -11050.8471 91.2013 -240.7943 -194.6843 29004.0285 -240.7943 -194.6843
ENERGY: 400000 0.0000 0.0000 0.0000 0.0000 -13891.9019 2401.2221 0.0000 0.0000 700.5576 -10790.1222 119.9104 -11490.6798 -10788.0293 120.2732 298.4376 314.9746 29082.6851 2.5966 2.5486
TCL: Running 100000 steps at 150 kelvin.
TCL: Setting parameter langevinTemp to 150
TCL: Running for 100000 steps
ETITLE: TS BOND ANGLE DIHED IMPRP ELECT VDW BOUNDARY MISC KINETIC TOTAL TEMP POTENTIAL TOTAL3 TEMPAVG PRESSURE GPRESSURE VOLUME PRESSAVG GPRESSAVG
ENERGY: 400000 0.0000 0.0000 0.0000 0.0000 -13891.9019 2401.2221 0.0000 0.0000 700.1999 -10790.4800 119.8492 -11490.6798 -10789.2712 119.8492 252.2445 316.0453 29082.6851 252.2445 316.0453
ENERGY: 500000 0.0000 0.0000 0.0000 0.0000 -13558.0736 2228.4116 0.0000 0.0000 900.4208 -10429.2412 154.1199 -11329.6620 -10426.9284 150.2138 -712.9923 -631.7667 29489.3133 3.3136 3.3303
TCL: Running 100000 steps at 180 kelvin.
TCL: Setting parameter langevinTemp to 180
TCL: Running for 100000 steps
ETITLE: TS BOND ANGLE DIHED IMPRP ELECT VDW BOUNDARY MISC KINETIC TOTAL TEMP POTENTIAL TOTAL3 TEMPAVG PRESSURE GPRESSURE VOLUME PRESSAVG GPRESSAVG
ENERGY: 500000 0.0000 0.0000 0.0000 0.0000 -13558.0736 2228.4116 0.0000 0.0000 899.9955 -10429.6665 154.0470 -11329.6620 -10427.9947 154.0470 -691.2755 -631.9045 29489.3133 -691.2755 -631.9045
ENERGY: 600000 0.0000 0.0000 0.0000 0.0000 -13066.5636 2102.8866 0.0000 0.0000 1084.4219 -9879.2551 185.6143 -10963.6770 -9877.0195 179.7720 29.2683 38.2088 28893.2392 3.8609 3.9540
TCL: Running 100000 steps at 210 kelvin.
TCL: Setting parameter langevinTemp to 210
TCL: Running for 100000 steps
ETITLE: TS BOND ANGLE DIHED IMPRP ELECT VDW BOUNDARY MISC KINETIC TOTAL TEMP POTENTIAL TOTAL3 TEMPAVG PRESSURE GPRESSURE VOLUME PRESSAVG GPRESSAVG
ENERGY: 600000 0.0000 0.0000 0.0000 0.0000 -13066.5636 2102.8866 0.0000 0.0000 1083.8963 -9879.7807 185.5243 -10963.6770 -9877.7430 185.5243 -31.7753 37.6452 28893.2392 -31.7753 37.6452
ENERGY: 700000 0.0000 0.0000 0.0000 0.0000 -12414.8186 1858.5978 0.0000 0.0000 1230.1830 -9326.0378 210.5633 -10556.2207 -9325.0668 209.9944 -628.1648 -568.0010 29028.7061 5.2685 5.1773
TCL: Running 100000 steps at 240 kelvin.
TCL: Setting parameter langevinTemp to 240
TCL: Running for 100000 steps
ETITLE: TS BOND ANGLE DIHED IMPRP ELECT VDW BOUNDARY MISC KINETIC TOTAL TEMP POTENTIAL TOTAL3 TEMPAVG PRESSURE GPRESSURE VOLUME PRESSAVG GPRESSAVG
ENERGY: 700000 0.0000 0.0000 0.0000 0.0000 -12414.8186 1858.5978 0.0000 0.0000 1229.5654 -9326.6554 210.4576 -10556.2207 -9324.7104 210.4576 -640.6275 -568.4126 29028.7061 -640.6275 -568.4126
ENERGY: 800000 0.0000 0.0000 0.0000 0.0000 -11792.5253 1699.6426 0.0000 0.0000 1414.6619 -8678.2207 242.1395 -10092.8826 -8673.1014 239.6787 -312.9532 -261.4964 29243.3226 2.7218 2.6399
TCL: Running 100000 steps at 270 kelvin.
TCL: Setting parameter langevinTemp to 270
TCL: Running for 100000 steps
ETITLE: TS BOND ANGLE DIHED IMPRP ELECT VDW BOUNDARY MISC KINETIC TOTAL TEMP POTENTIAL TOTAL3 TEMPAVG PRESSURE GPRESSURE VOLUME PRESSAVG GPRESSAVG
ENERGY: 800000 0.0000 0.0000 0.0000 0.0000 -11792.5253 1699.6426 0.0000 0.0000 1413.9923 -8678.8904 242.0249 -10092.8826 -8676.7445 242.0249 -330.2540 -260.1966 29243.3226 -330.2540 -260.1966
ENERGY: 900000 0.0000 0.0000 0.0000 0.0000 -11246.5881 1566.5372 0.0000 0.0000 1557.6997 -8122.3513 266.6225 -9680.0509 -8122.0774 269.9573 -146.2979 -37.2976 29550.7179 3.7484 3.8112
TCL: Running 1000000 steps at 300 kelvin.
TCL: Setting parameter langevinTemp to 300
TCL: Running for 1000000 steps
ETITLE: TS BOND ANGLE DIHED IMPRP ELECT VDW BOUNDARY MISC KINETIC TOTAL TEMP POTENTIAL TOTAL3 TEMPAVG PRESSURE GPRESSURE VOLUME PRESSAVG GPRESSAVG
ENERGY: 900000 0.0000 0.0000 0.0000 0.0000 -11246.5881 1566.5372 0.0000 0.0000 1556.9271 -8123.1238 266.4903 -9680.0509 -8121.1362 266.4903 -113.4736 -37.2542 29550.7179 -113.4736 -37.2542
ENERGY: 1100000 0.0000 0.0000 0.0000 0.0000 -10741.5585 1452.4254 0.0000 0.0000 1795.9157 -7493.2174 307.3966 -9289.1331 -7490.3922 300.3390 171.7266 270.1111 29970.9611 3.8298 3.7172
ENERGY: 1300000 0.0000 0.0000 0.0000 0.0000 -10834.8727 1559.8549 0.0000 0.0000 1710.7649 -7564.2529 292.8218 -9275.0177 -7562.7257 300.9250 766.9850 832.8386 30577.3776 1.6017 1.5613
ENERGY: 1500000 0.0000 0.0000 0.0000 0.0000 -10680.8005 1423.6140 0.0000 0.0000 1828.8982 -7428.2883 313.0420 -9257.1865 -7424.2152 299.9378 60.0296 145.3510 30173.7431 3.0867 2.9857
ENERGY: 1700000 0.0000 0.0000 0.0000 0.0000 -10770.9985 1420.4406 0.0000 0.0000 1691.1684 -7659.3894 289.4676 -9350.5579 -7659.0976 300.4385 -360.8160 -276.5057 29986.3008 2.6184 2.8895
ENERGY: 1900000 0.0000 0.0000 0.0000 0.0000 -10696.9876 1481.4129 0.0000 0.0000 1748.4865 -7467.0882 299.2784 -9215.5747 -7463.3329 299.7988 402.6152 512.9315 30514.9278 3.7870 3.6610
TCL: Exiting due to exit command.
