Info: SIMULATION PARAMETERS:
Info: TIMESTEP               2
Info: NUMBER OF STEPS        0
Info: STEPS PER CYCLE        10
Info: PERIODIC CELL BASIS 1  36.592 0 0
Info: PERIODIC CELL BASIS 2  0 34.26 0
Info: PERIODIC CELL BASIS 3  0 0 34.68
Info: PERIODIC CELL CENTER   0 0 0
Info: WRAPPING WATERS AROUND PERIODIC BOUNDARIES ON OUTPUT.
Info: WRAPPING ALL CLUSTERS AROUND PERIODIC BOUNDARIES ON OUTPUT.
Info: FIRST LDB TIMESTEP     50
Info: LAST LDB TIMESTEP     -1
Info: HOM BACKGROUND SCALING 1
Info: PME BACKGROUND SCALING 1
Info: MIN ATOMS PER PATCH    40
Info: EMPTY PATCH LOAD       40 ATOMS
Info: INITIAL TEMPERATURE    300
Info: CENTER OF MASS MOVING INITIALLY? NO
Info: DIELECTRIC             1
Info: EXCLUDE                SCALED ONE-FOUR
Info: 1-4 ELECTROSTATICS SCALED BY 0.833333
Info: MODIFIED 1-4 VDW PARAMETERS WILL BE USED
Info: DCD FILENAME           mobley_7015518_equil.dcd
Info: DCD FREQUENCY          100000
Info: DCD FIRST STEP         100000
Info: DCD FILE WILL CONTAIN UNIT CELL DATA
Info: XST FILENAME           mobley_7015518_equil.xst
Info: XST FREQUENCY          100000
Info: NO VELOCITY DCD OUTPUT
Info: NO FORCE DCD OUTPUT
Info: OUTPUT FILENAME        mobley_7015518_equil
Info: BINARY OUTPUT FILES WILL BE USED
Info: RESTART FILENAME       mobley_7015518_equil.restart
Info: RESTART FREQUENCY      100000
Info: BINARY RESTART FILES WILL BE USED
Info: CUTOFF                 9
Info: PAIRLIST DISTANCE      11
Info: PAIRLIST SHRINK RATE   0.01
Info: PAIRLIST GROW RATE     0.01
Info: PAIRLIST TRIGGER       0.3
Info: PAIRLISTS PER CYCLE    2
Info: PAIRLISTS ENABLED
Info: MARGIN                 8
Info: HYDROGEN GROUP CUTOFF  2.5
Info: PATCH DIMENSION        21.5
Info: ENERGY OUTPUT STEPS    100000
Info: ENERGY EVALUATION STEPS    100000
Info: OUTPUT ENERGY PRECISION 4
Info: CROSSTERM ENERGY INCLUDED IN DIHEDRAL
Info: TIMING OUTPUT STEPS    1000000
Info: PRESSURE OUTPUT STEPS  100000
Info: FIXED ATOMS ACTIVE
Info: LANGEVIN DYNAMICS ACTIVE
Info: LANGEVIN TEMPERATURE   30
Info: LANGEVIN USING BBK INTEGRATOR
Info: LANGEVIN DAMPING COEFFICIENT IS 1 INVERSE PS
Info: LANGEVIN DYNAMICS APPLIED TO HYDROGENS
Info: LANGEVIN PISTON PRESSURE CONTROL ACTIVE
Info:        TARGET PRESSURE IS 1.01325 BAR
Info:     OSCILLATION PERIOD IS 50 FS
Info:             DECAY TIME IS 25 FS
Info:     PISTON TEMPERATURE IS 300 K
Info:       PRESSURE CONTROL IS GROUP-BASED
Info:    INITIAL STRAIN RATE IS 0 0 0
Info:       CELL FLUCTUATION IS ISOTROPIC
Info: PARTICLE MESH EWALD (PME) ACTIVE
Info: PME TOLERANCE               1e-06
Info: PME EWALD COEFFICIENT       0.348832
Info: PME INTERPOLATION ORDER     4
Info: PME GRID DIMENSIONS         40 36 36
Info: PME MAXIMUM GRID SPACING    1
Info: FULL ELECTROSTATIC EVALUATION FREQUENCY      2
Info: USING VERLET I (r-RESPA) MTS SCHEME.
Info: C1 SPLITTING OF LONG RANGE ELECTROSTATICS
Info: PLACING ATOMS IN PATCHES BY HYDROGEN GROUPS
Info: RIGID BONDS TO HYDROGEN : ALL
Info:         ERROR TOLERANCE : 1e-08
Info:          MAX ITERATIONS : 100
Info: RIGID WATER USING SETTLE ALGORITHM
Info: RANDOM NUMBER SEED     1743682408
Info: USE HYDROGEN BONDS?    NO
Info: Using AMBER format force field!
Info: AMBER PARM FILE        mobley_7015518.prmtop
Info: COORDINATE PDB         mobley_7015518.pdb
Info: Exclusions will be read from PARM file!
Info: SCNB (VDW SCALING)     2
Info: USING ARITHMETIC MEAN TO COMBINE L-J SIGMA PARAMETERS
Info: BINARY COORDINATES     mobley_7015518_min.coor
Info: SUMMARY OF PARAMETERS:
Info: 4 BONDS
Info: 3 ANGLES
Info:   3 HARMONIC
Info:   0 COSINE-BASED
Info: 1 DIHEDRAL
Info: 0 IMPROPER
Info: 0 CROSSTERM
Info: 0 VDW
Info: 15 VDW_PAIRS
Info: 0 NBTHOLE_PAIRS
Info: STRUCTURE SUMMARY:
Info: 2910 ATOMS
Info: 2909 BONDS
Info: 13 ANGLES
Info: 6 DIHEDRALS
Info: 0 IMPROPERS
Info: 0 CROSSTERMS
Info: 2928 EXCLUSIONS
Info: 9 FIXED ATOMS
Info: 2907 RIGID BONDS
Info: 6 RIGID BONDS BETWEEN FIXED ATOMS
Info: 5802 DEGREES OF FREEDOM
Info: 970 HYDROGEN GROUPS
Info: 4 ATOMS IN LARGEST HYDROGEN GROUP
Info: 970 MIGRATION GROUPS
Info: 4 ATOMS IN LARGEST MIGRATION GROUP
Info: 3 HYDROGEN GROUPS WITH ALL ATOMS FIXED
Info: TOTAL MASS = 17467.5 amu
Info: TOTAL CHARGE = 9.99942e-05 e
Info: MASS DENSITY = 0.667173 g/cm^3
Info: ATOM DENSITY = 0.066933 atoms/A^3
Info: ADDED 0 IMPLICIT EXCLUSIONS
Info: NONBONDED TABLE R-SQUARED SPACING: 0.0625
Info: NONBONDED TABLE SIZE: 705 POINTS
Info: REMOVING COM VELOCITY 0.0787316 0.0409259 -0.142573
TCL: Running for 100000 steps
ETITLE: TS BOND ANGLE DIHED IMPRP ELECT VDW BOUNDARY MISC KINETIC TOTAL TEMP POTENTIAL TOTAL3 TEMPAVG PRESSURE GPRESSURE VOLUME PRESSAVG GPRESSAVG
ENERGY: 0 0.0000 0.0000 0.0000 0.0000 -13514.0582 2393.6488 0.0000 0.0000 1766.9246 -9353.4847 306.5001 -11120.4094 -9353.1324 306.5001 515.5106 554.4290 43476.3018 515.5106 554.4290
ENERGY: 100000 0.0000 0.0000 0.0000 0.0000 -14011.0331 2412.1381 0.0000 0.0000 174.5962 -11424.2988 30.2864 -11598.8950 -11423.9566 30.8946 -274.3908 -210.3465 28855.0407 3.8824 3.8239
TCL: Running 100000 steps at 60 kelvin.
TCL: Setting parameter langevinTemp to 60
TCL: Running for 100000 steps
ETITLE: TS BOND ANGLE DIHED IMPRP ELECT VDW BOUNDARY MISC KINETIC TOTAL TEMP POTENTIAL TOTAL3 TEMPAVG PRESSURE GPRESSURE VOLUME PRESSAVG GPRESSAVG
ENERGY: 100000 0.0000 0.0000 0.0000 0.0000 -14011.0331 2412.1381 0.0000 0.0000 174.5086 -11424.3864 30.2712 -11598.8950 -11423.9527 30.2712 -271.8108 -210.3123 28855.0407 -271.8108 -210.3123
ENERGY: 200000 0.0000 0.0000 0.0000 0.0000 -13763.1743 2224.2460 0.0000 0.0000 344.3467 -11194.5816 59.7322 -11538.9282 -11193.6571 60.0676 -1411.0536 -1353.6644 28596.3505 4.3290 4.2853
TCL: Running 100000 steps at 90 kelvin.
TCL: Setting parameter langevinTemp to 90
TCL: Running for 100000 steps
ETITLE: TS BOND ANGLE DIHED IMPRP ELECT VDW BOUNDARY MISC KINETIC TOTAL TEMP POTENTIAL TOTAL3 TEMPAVG PRESSURE GPRESSURE VOLUME PRESSAVG GPRESSAVG
ENERGY: 200000 0.0000 0.0000 0.0000 0.0000 -13763.1743 2224.2460 0.0000 0.0000 344.1780 -11194.7502 59.7030 -11538.9282 -11193.9545 59.7030 -1409.6300 -1353.4938 28596.3505 -1409.6300 -1353.4938
ENERGY: 300000 0.0000 0.0000 0.0000 0.0000 -13761.0020 2275.0521 0.0000 0.0000 515.3074 -10970.6425 89.3880 -11485.9499 -10969.3475 89.8894 -631.5818 -594.6648 28195.3918 3.2629 3.1606
TCL: Running 100000 steps at 120 kelvin.
TCL: Setting parameter langevinTemp to 120
TCL: Running for 100000 steps
ETITLE: TS BOND ANGLE DIHED IMPRP ELECT VDW BOUNDARY MISC KINETIC TOTAL TEMP POTENTIAL TOTAL3 TEMPAVG PRESSURE GPRESSURE VOLUME PRESSAVG GPRESSAVG
ENERGY: 300000 0.0000 0.0000 0.0000 0.0000 -13761.0020 2275.0521 0.0000 0.0000 515.0537 -10970.8962 89.3440 -11485.9499 -10969.6612 89.3440 -646.5980 -594.9865 28195.3918 -646.5980 -594.9865
ENERGY: 400000 0.0000 0.0000 0.0000 0.0000 -13504.2684 2204.3413 0.0000 0.0000 691.3996 -10608.5275 119.9338 -11299.9270 -10606.4719 119.9215 -758.9902 -681.7797 28638.3361 4.1110 4.1568
TCL: Running 100000 steps at 150 kelvin.
TCL: Setting parameter langevinTemp to 150
TCL: Running for 100000 steps
ETITLE: TS BOND ANGLE DIHED IMPRP ELECT VDW BOUNDARY MISC KINETIC TOTAL TEMP POTENTIAL TOTAL3 TEMPAVG PRESSURE GPRESSURE VOLUME PRESSAVG GPRESSAVG
ENERGY: 400000 0.0000 0.0000 0.0000 0.0000 -13504.2684 2204.3413 0.0000 0.0000 691.0660 -10608.8610 119.8760 -11299.9270 -10607.5775 119.8760 -752.9660 -681.2529 28638.3361 -752.9660 -681.2529
ENERGY: 500000 0.0000 0.0000 0.0000 0.0000 -13257.5179 2136.7367 0.0000 0.0000 894.7656 -10226.0157 155.2108 -11120.7813 -10224.3873 149.9046 -694.9588 -630.0668 28550.3020 2.8449 2.7302
TCL: Running 100000 steps at 180 kelvin.
TCL: Setting parameter langevinTemp to 180
TCL: Running for 100000 steps
ETITLE: TS BOND ANGLE DIHED IMPRP ELECT VDW BOUNDARY MISC KINETIC TOTAL TEMP POTENTIAL TOTAL3 TEMPAVG PRESSURE GPRESSURE VOLUME PRESSAVG GPRESSAVG
ENERGY: 500000 0.0000 0.0000 0.0000 0.0000 -13257.5179 2136.7367 0.0000 0.0000 894.3297 -10226.4516 155.1352 -11120.7813 -10224.5653 155.1352 -682.7515 -630.5253 28550.3020 -682.7515 -630.5253
ENERGY: 600000 0.0000 0.0000 0.0000 0.0000 -12887.1078 2054.6172 0.0000 0.0000 1021.3007 -9811.1898 177.1603 -10832.4905 -9807.6300 179.9601 -209.5945 -141.7381 28461.2095 2.3835 2.4061
TCL: Running 100000 steps at 210 kelvin.
TCL: Setting parameter langevinTemp to 210
TCL: Running for 100000 steps
ETITLE: TS BOND ANGLE DIHED IMPRP ELECT VDW BOUNDARY MISC KINETIC TOTAL TEMP POTENTIAL TOTAL3 TEMPAVG PRESSURE GPRESSURE VOLUME PRESSAVG GPRESSAVG
ENERGY: 600000 0.0000 0.0000 0.0000 0.0000 -12887.1078 2054.6172 0.0000 0.0000 1020.7620 -9811.7286 177.0668 -10832.4905 -9809.8574 177.0668 -194.4427 -140.9112 28461.2095 -194.4427 -140.9112
ENERGY: 700000 0.0000 0.0000 0.0000 0.0000 -12336.5554 1934.4852 0.0000 0.0000 1186.6871 -9215.3832 205.8491 -10402.0702 -9212.9371 209.8250 584.6213 674.2331 27936.1396 2.3166 2.3779
TCL: Running 100000 steps at 240 kelvin.
TCL: Setting parameter langevinTemp to 240
TCL: Running for 100000 steps
ETITLE: TS BOND ANGLE DIHED IMPRP ELECT VDW BOUNDARY MISC KINETIC TOTAL TEMP POTENTIAL TOTAL3 TEMPAVG PRESSURE GPRESSURE VOLUME PRESSAVG GPRESSAVG
ENERGY: 700000 0.0000 0.0000 0.0000 0.0000 -12336.5554 1934.4852 0.0000 0.0000 1186.0957 -9215.9745 205.7465 -10402.0702 -9213.8857 205.7465 599.3516 672.3639 27936.1396 599.3516 672.3639
ENERGY: 800000 0.0000 0.0000 0.0000 0.0000 -11658.8246 1679.8517 0.0000 0.0000 1343.8204 -8635.1525 233.1062 -9978.9729 -8633.1570 239.4250 -33.3913 38.8562 28361.3136 5.9430 5.8100
TCL: Running 100000 steps at 270 kelvin.
TCL: Setting parameter langevinTemp to 270
TCL: Running for 100000 steps
ETITLE: TS BOND ANGLE DIHED IMPRP ELECT VDW BOUNDARY MISC KINETIC TOTAL TEMP POTENTIAL TOTAL3 TEMPAVG PRESSURE GPRESSURE VOLUME PRESSAVG GPRESSAVG
ENERGY: 800000 0.0000 0.0000 0.0000 0.0000 -11658.8246 1679.8517 0.0000 0.0000 1343.1098 -8635.8631 232.9830 -9978.9729 -8633.6627 232.9830 -34.4449 38.2381 28361.3136 -34.4449 38.2381
ENERGY: 900000 0.0000 0.0000 0.0000 0.0000 -11005.8879 1548.9248 0.0000 0.0000 1540.4218 -7916.5413 267.2098 -9456.9631 -7910.2986 269.7836 136.0862 241.7417 29329.6663 0.9296 1.2734
TCL: Running 1000000 steps at 300 kelvin.
TCL: Setting parameter langevinTemp to 300
TCL: Running for 1000000 steps
ETITLE: TS BOND ANGLE DIHED IMPRP ELECT VDW BOUNDARY MISC KINETIC TOTAL TEMP POTENTIAL TOTAL3 TEMPAVG PRESSURE GPRESSURE VOLUME PRESSAVG GPRESSAVG
ENERGY: 900000 0.0000 0.0000 0.0000 0.0000 -11005.8879 1548.9248 0.0000 0.0000 1539.6882 -7917.2749 267.0825 -9456.9631 -7914.1244 267.0825 150.4245 240.8688 29329.6663 150.4245 240.8688
ENERGY: 1100000 0.0000 0.0000 0.0000 0.0000 -10678.5521 1502.3045 0.0000 0.0000 1765.3638 -7410.8838 306.2294 -9176.2476 -7408.7719 300.5958 772.3224 864.4133 29460.8499 2.4709 2.5309
ENERGY: 1300000 0.0000 0.0000 0.0000 0.0000 -10691.2820 1449.8419 0.0000 0.0000 1690.2062 -7551.2339 293.1922 -9241.4401 -7549.8721 300.2185 -160.4419 15.0617 29723.9793 2.8136 2.9584
ENERGY: 1500000 0.0000 0.0000 0.0000 0.0000 -10598.3854 1433.3512 0.0000 0.0000 1758.9394 -7406.0948 305.1150 -9165.0342 -7405.6047 300.2522 22.2355 95.5110 29856.9677 2.5444 2.4252
ENERGY: 1700000 0.0000 0.0000 0.0000 0.0000 -10524.8622 1397.9774 0.0000 0.0000 1712.6739 -7414.2109 297.0895 -9126.8848 -7408.2882 300.2075 -485.8514 -380.0937 30380.2613 3.4800 3.6027
ENERGY: 1900000 0.0000 0.0000 0.0000 0.0000 -10665.4126 1484.6212 0.0000 0.0000 1713.2170 -7467.5743 297.1837 -9180.7914 -7465.6395 300.4828 185.4901 312.2325 30318.6387 4.5711 4.3516
TCL: Exiting due to exit command.
