Info: SIMULATION PARAMETERS:
Info: TIMESTEP               2
Info: NUMBER OF STEPS        0
Info: STEPS PER CYCLE        10
Info: PERIODIC CELL BASIS 1  39.806 0 0
Info: PERIODIC CELL BASIS 2  0 36.451 0
Info: PERIODIC CELL BASIS 3  0 0 30.276
Info: PERIODIC CELL CENTER   0 0 0
Info: WRAPPING WATERS AROUND PERIODIC BOUNDARIES ON OUTPUT.
Info: WRAPPING ALL CLUSTERS AROUND PERIODIC BOUNDARIES ON OUTPUT.
Info: FIRST LDB TIMESTEP     50
Info: LAST LDB TIMESTEP     -1
Info: HOM BACKGROUND SCALING 1
Info: PME BACKGROUND SCALING 1
Info: MIN ATOMS PER PATCH    40
Info: EMPTY PATCH LOAD       40 ATOMS
Info: INITIAL TEMPERATURE    300
Info: CENTER OF MASS MOVING INITIALLY? NO
Info: DIELECTRIC             1
Info: EXCLUDE                SCALED ONE-FOUR
Info: 1-4 ELECTROSTATICS SCALED BY 0.833333
Info: MODIFIED 1-4 VDW PARAMETERS WILL BE USED
Info: DCD FILENAME           mobley_8827942_equil.dcd
Info: DCD FREQUENCY          100000
Info: DCD FIRST STEP         100000
Info: DCD FILE WILL CONTAIN UNIT CELL DATA
Info: XST FILENAME           mobley_8827942_equil.xst
Info: XST FREQUENCY          100000
Info: NO VELOCITY DCD OUTPUT
Info: NO FORCE DCD OUTPUT
Info: OUTPUT FILENAME        mobley_8827942_equil
Info: BINARY OUTPUT FILES WILL BE USED
Info: RESTART FILENAME       mobley_8827942_equil.restart
Info: RESTART FREQUENCY      100000
Info: BINARY RESTART FILES WILL BE USED
Info: CUTOFF                 9
Info: PAIRLIST DISTANCE      11
Info: PAIRLIST SHRINK RATE   0.01
Info: PAIRLIST GROW RATE     0.01
Info: PAIRLIST TRIGGER       0.3
Info: PAIRLISTS PER CYCLE    2
Info: PAIRLISTS ENABLED
Info: MARGIN                 8
Info: HYDROGEN GROUP CUTOFF  2.5
Info: PATCH DIMENSION        21.5
Info: ENERGY OUTPUT STEPS    100000
Info: ENERGY EVALUATION STEPS    100000
Info: OUTPUT ENERGY PRECISION 4
Info: CROSSTERM ENERGY INCLUDED IN DIHEDRAL
Info: TIMING OUTPUT STEPS    1000000
Info: PRESSURE OUTPUT STEPS  100000
Info: FIXED ATOMS ACTIVE
Info: LANGEVIN DYNAMICS ACTIVE
Info: LANGEVIN TEMPERATURE   30
Info: LANGEVIN USING BBK INTEGRATOR
Info: LANGEVIN DAMPING COEFFICIENT IS 1 INVERSE PS
Info: LANGEVIN DYNAMICS APPLIED TO HYDROGENS
Info: LANGEVIN PISTON PRESSURE CONTROL ACTIVE
Info:        TARGET PRESSURE IS 1.01325 BAR
Info:     OSCILLATION PERIOD IS 50 FS
Info:             DECAY TIME IS 25 FS
Info:     PISTON TEMPERATURE IS 300 K
Info:       PRESSURE CONTROL IS GROUP-BASED
Info:    INITIAL STRAIN RATE IS 0 0 0
Info:       CELL FLUCTUATION IS ISOTROPIC
Info: PARTICLE MESH EWALD (PME) ACTIVE
Info: PME TOLERANCE               1e-06
Info: PME EWALD COEFFICIENT       0.348832
Info: PME INTERPOLATION ORDER     4
Info: PME GRID DIMENSIONS         40 40 32
Info: PME MAXIMUM GRID SPACING    1
Info: FULL ELECTROSTATIC EVALUATION FREQUENCY      2
Info: USING VERLET I (r-RESPA) MTS SCHEME.
Info: C1 SPLITTING OF LONG RANGE ELECTROSTATICS
Info: PLACING ATOMS IN PATCHES BY HYDROGEN GROUPS
Info: RIGID BONDS TO HYDROGEN : ALL
Info:         ERROR TOLERANCE : 1e-08
Info:          MAX ITERATIONS : 100
Info: RIGID WATER USING SETTLE ALGORITHM
Info: RANDOM NUMBER SEED     1743764835
Info: USE HYDROGEN BONDS?    NO
Info: Using AMBER format force field!
Info: AMBER PARM FILE        mobley_8827942.prmtop
Info: COORDINATE PDB         mobley_8827942.pdb
Info: Exclusions will be read from PARM file!
Info: SCNB (VDW SCALING)     2
Info: USING ARITHMETIC MEAN TO COMBINE L-J SIGMA PARAMETERS
Info: BINARY COORDINATES     mobley_8827942_min.coor
Info: SUMMARY OF PARAMETERS:
Info: 6 BONDS
Info: 5 ANGLES
Info:   5 HARMONIC
Info:   0 COSINE-BASED
Info: 3 DIHEDRAL
Info: 0 IMPROPER
Info: 0 CROSSTERM
Info: 0 VDW
Info: 21 VDW_PAIRS
Info: 0 NBTHOLE_PAIRS
Info: STRUCTURE SUMMARY:
Info: 2932 ATOMS
Info: 2934 BONDS
Info: 38 ANGLES
Info: 68 DIHEDRALS
Info: 0 IMPROPERS
Info: 0 CROSSTERMS
Info: 3019 EXCLUSIONS
Info: 22 FIXED ATOMS
Info: 2915 RIGID BONDS
Info: 5 RIGID BONDS BETWEEN FIXED ATOMS
Info: 5820 DEGREES OF FREEDOM
Info: 987 HYDROGEN GROUPS
Info: 3 ATOMS IN LARGEST HYDROGEN GROUP
Info: 987 MIGRATION GROUPS
Info: 3 ATOMS IN LARGEST MIGRATION GROUP
Info: 17 HYDROGEN GROUPS WITH ALL ATOMS FIXED
Info: TOTAL MASS = 17763 amu
Info: TOTAL CHARGE = 0.000100013 e
Info: MASS DENSITY = 0.671459 g/cm^3
Info: ATOM DENSITY = 0.0667433 atoms/A^3
Info: ADDED 0 IMPLICIT EXCLUSIONS
Info: NONBONDED TABLE R-SQUARED SPACING: 0.0625
Info: NONBONDED TABLE SIZE: 705 POINTS
Info: REMOVING COM VELOCITY 0.0430696 0.0781525 0.300149
TCL: Running for 100000 steps
ETITLE: TS BOND ANGLE DIHED IMPRP ELECT VDW BOUNDARY MISC KINETIC TOTAL TEMP POTENTIAL TOTAL3 TEMPAVG PRESSURE GPRESSURE VOLUME PRESSAVG GPRESSAVG
ENERGY: 0 0.0000 0.0000 0.0000 0.0000 -13555.9448 2366.2691 0.0000 0.0000 1721.4478 -9468.2279 297.6879 -11189.6757 -9467.8771 297.6879 265.4876 288.2356 43929.5225 265.4876 288.2356
ENERGY: 100000 0.0000 0.0000 0.0000 0.0000 -14303.3455 2626.1659 0.0000 0.0000 176.1469 -11501.0327 30.4609 -11677.1795 -11500.5145 30.8373 1426.3053 1481.7673 28736.7156 2.7896 2.7379
TCL: Running 100000 steps at 60 kelvin.
TCL: Setting parameter langevinTemp to 60
TCL: Running for 100000 steps
ETITLE: TS BOND ANGLE DIHED IMPRP ELECT VDW BOUNDARY MISC KINETIC TOTAL TEMP POTENTIAL TOTAL3 TEMPAVG PRESSURE GPRESSURE VOLUME PRESSAVG GPRESSAVG
ENERGY: 100000 0.0000 0.0000 0.0000 0.0000 -14303.3455 2626.1659 0.0000 0.0000 176.0623 -11501.1173 30.4462 -11677.1795 -11500.8250 30.4462 1432.4783 1481.9560 28736.7156 1432.4783 1481.9560
ENERGY: 200000 0.0000 0.0000 0.0000 0.0000 -14021.1258 2447.4275 0.0000 0.0000 350.4941 -11223.2042 60.6105 -11573.6984 -11222.5805 59.8824 252.6071 300.3364 29010.6962 3.2467 3.3331
TCL: Running 100000 steps at 90 kelvin.
TCL: Setting parameter langevinTemp to 90
TCL: Running for 100000 steps
ETITLE: TS BOND ANGLE DIHED IMPRP ELECT VDW BOUNDARY MISC KINETIC TOTAL TEMP POTENTIAL TOTAL3 TEMPAVG PRESSURE GPRESSURE VOLUME PRESSAVG GPRESSAVG
ENERGY: 200000 0.0000 0.0000 0.0000 0.0000 -14021.1258 2447.4275 0.0000 0.0000 350.3176 -11223.3807 60.5800 -11573.6984 -11222.6673 60.5800 249.4078 300.1172 29010.6962 249.4078 300.1172
ENERGY: 300000 0.0000 0.0000 0.0000 0.0000 -13870.0930 2384.9103 0.0000 0.0000 509.5259 -10975.6569 88.1117 -11485.1827 -10973.7889 89.9839 427.8245 466.4198 28514.3598 3.9484 3.9062
TCL: Running 100000 steps at 120 kelvin.
TCL: Setting parameter langevinTemp to 120
TCL: Running for 100000 steps
ETITLE: TS BOND ANGLE DIHED IMPRP ELECT VDW BOUNDARY MISC KINETIC TOTAL TEMP POTENTIAL TOTAL3 TEMPAVG PRESSURE GPRESSURE VOLUME PRESSAVG GPRESSAVG
ENERGY: 300000 0.0000 0.0000 0.0000 0.0000 -13870.0930 2384.9103 0.0000 0.0000 509.2545 -10975.9283 88.0648 -11485.1827 -10974.9093 88.0648 413.0150 466.6703 28514.3598 413.0150 466.6703
ENERGY: 400000 0.0000 0.0000 0.0000 0.0000 -13764.2364 2419.7258 0.0000 0.0000 680.1186 -10664.3919 117.6121 -11344.5106 -10663.2045 119.8350 1091.5523 1132.1045 28636.0809 4.0286 3.9627
TCL: Running 100000 steps at 150 kelvin.
TCL: Setting parameter langevinTemp to 150
TCL: Running for 100000 steps
ETITLE: TS BOND ANGLE DIHED IMPRP ELECT VDW BOUNDARY MISC KINETIC TOTAL TEMP POTENTIAL TOTAL3 TEMPAVG PRESSURE GPRESSURE VOLUME PRESSAVG GPRESSAVG
ENERGY: 400000 0.0000 0.0000 0.0000 0.0000 -13764.2364 2419.7258 0.0000 0.0000 679.7635 -10664.7470 117.5507 -11344.5106 -10663.5679 117.5507 1078.6084 1132.0383 28636.0809 1078.6084 1132.0383
ENERGY: 500000 0.0000 0.0000 0.0000 0.0000 -13308.7929 2125.6039 0.0000 0.0000 866.8159 -10316.3731 149.8975 -11183.1890 -10314.2043 150.1116 -775.9371 -796.1893 28961.0238 4.9495 4.8820
TCL: Running 100000 steps at 180 kelvin.
TCL: Setting parameter langevinTemp to 180
TCL: Running for 100000 steps
ETITLE: TS BOND ANGLE DIHED IMPRP ELECT VDW BOUNDARY MISC KINETIC TOTAL TEMP POTENTIAL TOTAL3 TEMPAVG PRESSURE GPRESSURE VOLUME PRESSAVG GPRESSAVG
ENERGY: 500000 0.0000 0.0000 0.0000 0.0000 -13308.7929 2125.6039 0.0000 0.0000 866.3739 -10316.8151 149.8210 -11183.1890 -10315.2619 149.8210 -848.4913 -796.7313 28961.0238 -848.4913 -796.7313
ENERGY: 600000 0.0000 0.0000 0.0000 0.0000 -12969.8800 2059.4681 0.0000 0.0000 1065.1887 -9845.2232 184.2018 -10910.4119 -9842.5855 179.8677 -286.1499 -195.8205 28879.9142 3.0403 3.0055
TCL: Running 100000 steps at 210 kelvin.
TCL: Setting parameter langevinTemp to 210
TCL: Running for 100000 steps
ETITLE: TS BOND ANGLE DIHED IMPRP ELECT VDW BOUNDARY MISC KINETIC TOTAL TEMP POTENTIAL TOTAL3 TEMPAVG PRESSURE GPRESSURE VOLUME PRESSAVG GPRESSAVG
ENERGY: 600000 0.0000 0.0000 0.0000 0.0000 -12969.8800 2059.4681 0.0000 0.0000 1064.6670 -9845.7450 184.1116 -10910.4119 -9843.5988 184.1116 -248.6879 -195.0870 28879.9142 -248.6879 -195.0870
ENERGY: 700000 0.0000 0.0000 0.0000 0.0000 -12260.7045 1820.8543 0.0000 0.0000 1215.0531 -9224.7971 210.1177 -10439.8502 -9222.4750 209.9805 -437.6862 -303.5021 28639.6199 3.6744 3.7104
TCL: Running 100000 steps at 240 kelvin.
TCL: Setting parameter langevinTemp to 240
TCL: Running for 100000 steps
ETITLE: TS BOND ANGLE DIHED IMPRP ELECT VDW BOUNDARY MISC KINETIC TOTAL TEMP POTENTIAL TOTAL3 TEMPAVG PRESSURE GPRESSURE VOLUME PRESSAVG GPRESSAVG
ENERGY: 700000 0.0000 0.0000 0.0000 0.0000 -12260.7045 1820.8543 0.0000 0.0000 1214.4214 -9225.4288 210.0085 -10439.8502 -9223.7420 210.0085 -386.6917 -302.9887 28639.6199 -386.6917 -302.9887
ENERGY: 800000 0.0000 0.0000 0.0000 0.0000 -11686.5789 1656.2397 0.0000 0.0000 1398.1956 -8632.1436 241.7883 -10030.3392 -8628.7019 239.7042 -380.5690 -330.2974 28979.1488 3.6814 3.5224
TCL: Running 100000 steps at 270 kelvin.
TCL: Setting parameter langevinTemp to 270
TCL: Running for 100000 steps
ETITLE: TS BOND ANGLE DIHED IMPRP ELECT VDW BOUNDARY MISC KINETIC TOTAL TEMP POTENTIAL TOTAL3 TEMPAVG PRESSURE GPRESSURE VOLUME PRESSAVG GPRESSAVG
ENERGY: 800000 0.0000 0.0000 0.0000 0.0000 -11686.5789 1656.2397 0.0000 0.0000 1397.4908 -8632.8483 241.6664 -10030.3392 -8630.0994 241.6664 -417.4934 -330.0230 28979.1488 -417.4934 -330.0230
ENERGY: 900000 0.0000 0.0000 0.0000 0.0000 -11118.2672 1471.4996 0.0000 0.0000 1536.4184 -8110.3493 265.6910 -9646.7676 -8107.1652 269.4368 -640.7002 -565.7168 29349.1584 3.5183 3.5821
TCL: Running 1000000 steps at 300 kelvin.
TCL: Setting parameter langevinTemp to 300
TCL: Running for 1000000 steps
ETITLE: TS BOND ANGLE DIHED IMPRP ELECT VDW BOUNDARY MISC KINETIC TOTAL TEMP POTENTIAL TOTAL3 TEMPAVG PRESSURE GPRESSURE VOLUME PRESSAVG GPRESSAVG
ENERGY: 900000 0.0000 0.0000 0.0000 0.0000 -11118.2672 1471.4996 0.0000 0.0000 1535.6335 -8111.1341 265.5553 -9646.7676 -8108.5342 265.5553 -631.3224 -566.4023 29349.1584 -631.3224 -566.4023
ENERGY: 1100000 0.0000 0.0000 0.0000 0.0000 -10676.3545 1441.5981 0.0000 0.0000 1724.2568 -7510.4996 298.1737 -9234.7564 -7508.9538 300.4296 83.4406 181.5407 30145.9221 1.7672 1.7704
ENERGY: 1300000 0.0000 0.0000 0.0000 0.0000 -10542.8694 1345.1185 0.0000 0.0000 1696.1284 -7501.6225 293.3095 -9197.7509 -7497.5934 300.3623 -518.4127 -521.9736 30273.9589 3.2794 3.3751
ENERGY: 1500000 0.0000 0.0000 0.0000 0.0000 -10602.1256 1428.4827 0.0000 0.0000 1747.7343 -7425.9087 302.2336 -9173.6429 -7424.4987 300.5813 255.7574 386.1987 30030.6858 3.0447 2.9201
ENERGY: 1700000 0.0000 0.0000 0.0000 0.0000 -10700.8283 1466.7588 0.0000 0.0000 1710.5470 -7523.5225 295.8029 -9234.0695 -7518.6884 300.7421 298.0911 401.3639 30095.1976 2.2681 2.1862
ENERGY: 1900000 0.0000 0.0000 0.0000 0.0000 -10581.4430 1400.4385 0.0000 0.0000 1775.1120 -7405.8925 306.9680 -9181.0045 -7403.7222 300.4131 -306.7769 -191.9282 30679.2154 3.2839 3.1137
TCL: Exiting due to exit command.
