Info: SIMULATION PARAMETERS:
Info: TIMESTEP               2
Info: NUMBER OF STEPS        0
Info: STEPS PER CYCLE        10
Info: PERIODIC CELL BASIS 1  37.435 0 0
Info: PERIODIC CELL BASIS 2  0 35.779 0
Info: PERIODIC CELL BASIS 3  0 0 31.855
Info: PERIODIC CELL CENTER   0 0 0
Info: WRAPPING WATERS AROUND PERIODIC BOUNDARIES ON OUTPUT.
Info: WRAPPING ALL CLUSTERS AROUND PERIODIC BOUNDARIES ON OUTPUT.
Info: FIRST LDB TIMESTEP     50
Info: LAST LDB TIMESTEP     -1
Info: HOM BACKGROUND SCALING 1
Info: PME BACKGROUND SCALING 1
Info: MIN ATOMS PER PATCH    40
Info: EMPTY PATCH LOAD       40 ATOMS
Info: INITIAL TEMPERATURE    300
Info: CENTER OF MASS MOVING INITIALLY? NO
Info: DIELECTRIC             1
Info: EXCLUDE                SCALED ONE-FOUR
Info: 1-4 ELECTROSTATICS SCALED BY 0.833333
Info: MODIFIED 1-4 VDW PARAMETERS WILL BE USED
Info: DCD FILENAME           mobley_3144334_equil.dcd
Info: DCD FREQUENCY          100000
Info: DCD FIRST STEP         100000
Info: DCD FILE WILL CONTAIN UNIT CELL DATA
Info: XST FILENAME           mobley_3144334_equil.xst
Info: XST FREQUENCY          100000
Info: NO VELOCITY DCD OUTPUT
Info: NO FORCE DCD OUTPUT
Info: OUTPUT FILENAME        mobley_3144334_equil
Info: BINARY OUTPUT FILES WILL BE USED
Info: RESTART FILENAME       mobley_3144334_equil.restart
Info: RESTART FREQUENCY      100000
Info: BINARY RESTART FILES WILL BE USED
Info: CUTOFF                 9
Info: PAIRLIST DISTANCE      11
Info: PAIRLIST SHRINK RATE   0.01
Info: PAIRLIST GROW RATE     0.01
Info: PAIRLIST TRIGGER       0.3
Info: PAIRLISTS PER CYCLE    2
Info: PAIRLISTS ENABLED
Info: MARGIN                 8
Info: HYDROGEN GROUP CUTOFF  2.5
Info: PATCH DIMENSION        21.5
Info: ENERGY OUTPUT STEPS    100000
Info: ENERGY EVALUATION STEPS    100000
Info: OUTPUT ENERGY PRECISION 4
Info: CROSSTERM ENERGY INCLUDED IN DIHEDRAL
Info: TIMING OUTPUT STEPS    1000000
Info: PRESSURE OUTPUT STEPS  100000
Info: FIXED ATOMS ACTIVE
Info: LANGEVIN DYNAMICS ACTIVE
Info: LANGEVIN TEMPERATURE   30
Info: LANGEVIN USING BBK INTEGRATOR
Info: LANGEVIN DAMPING COEFFICIENT IS 1 INVERSE PS
Info: LANGEVIN DYNAMICS APPLIED TO HYDROGENS
Info: LANGEVIN PISTON PRESSURE CONTROL ACTIVE
Info:        TARGET PRESSURE IS 1.01325 BAR
Info:     OSCILLATION PERIOD IS 50 FS
Info:             DECAY TIME IS 25 FS
Info:     PISTON TEMPERATURE IS 300 K
Info:       PRESSURE CONTROL IS GROUP-BASED
Info:    INITIAL STRAIN RATE IS 0 0 0
Info:       CELL FLUCTUATION IS ISOTROPIC
Info: PARTICLE MESH EWALD (PME) ACTIVE
Info: PME TOLERANCE               1e-06
Info: PME EWALD COEFFICIENT       0.348832
Info: PME INTERPOLATION ORDER     4
Info: PME GRID DIMENSIONS         40 36 32
Info: PME MAXIMUM GRID SPACING    1
Info: FULL ELECTROSTATIC EVALUATION FREQUENCY      2
Info: USING VERLET I (r-RESPA) MTS SCHEME.
Info: C1 SPLITTING OF LONG RANGE ELECTROSTATICS
Info: PLACING ATOMS IN PATCHES BY HYDROGEN GROUPS
Info: RIGID BONDS TO HYDROGEN : ALL
Info:         ERROR TOLERANCE : 1e-08
Info:          MAX ITERATIONS : 100
Info: RIGID WATER USING SETTLE ALGORITHM
Info: RANDOM NUMBER SEED     1744678277
Info: USE HYDROGEN BONDS?    NO
Info: Using AMBER format force field!
Info: AMBER PARM FILE        mobley_3144334.prmtop
Info: COORDINATE PDB         mobley_3144334.pdb
Info: Exclusions will be read from PARM file!
Info: SCNB (VDW SCALING)     2
Info: USING ARITHMETIC MEAN TO COMBINE L-J SIGMA PARAMETERS
Info: BINARY COORDINATES     mobley_3144334_min.coor
Info: SUMMARY OF PARAMETERS:
Info: 8 BONDS
Info: 7 ANGLES
Info:   7 HARMONIC
Info:   0 COSINE-BASED
Info: 4 DIHEDRAL
Info: 0 IMPROPER
Info: 0 CROSSTERM
Info: 0 VDW
Info: 28 VDW_PAIRS
Info: 0 NBTHOLE_PAIRS
Info: STRUCTURE SUMMARY:
Info: 2950 ATOMS
Info: 2950 BONDS
Info: 31 ANGLES
Info: 44 DIHEDRALS
Info: 0 IMPROPERS
Info: 0 CROSSTERMS
Info: 3016 EXCLUSIONS
Info: 19 FIXED ATOMS
Info: 2941 RIGID BONDS
Info: 10 RIGID BONDS BETWEEN FIXED ATOMS
Info: 5862 DEGREES OF FREEDOM
Info: 986 HYDROGEN GROUPS
Info: 4 ATOMS IN LARGEST HYDROGEN GROUP
Info: 986 MIGRATION GROUPS
Info: 4 ATOMS IN LARGEST MIGRATION GROUP
Info: 9 HYDROGEN GROUPS WITH ALL ATOMS FIXED
Info: TOTAL MASS = 17723.8 amu
Info: TOTAL CHARGE = 0.000200007 e
Info: MASS DENSITY = 0.689814 g/cm^3
Info: ATOM DENSITY = 0.0691414 atoms/A^3
Info: ADDED 0 IMPLICIT EXCLUSIONS
Info: NONBONDED TABLE R-SQUARED SPACING: 0.0625
Info: NONBONDED TABLE SIZE: 705 POINTS
Info: REMOVING COM VELOCITY 0.0900803 -0.0570474 5.67891e-05
TCL: Running for 100000 steps
ETITLE: TS BOND ANGLE DIHED IMPRP ELECT VDW BOUNDARY MISC KINETIC TOTAL TEMP POTENTIAL TOTAL3 TEMPAVG PRESSURE GPRESSURE VOLUME PRESSAVG GPRESSAVG
ENERGY: 0 0.0000 0.0000 0.0000 0.0000 -13643.4015 2346.1303 0.0000 0.0000 1824.3335 -9472.9377 313.2195 -11297.2712 -9472.5784 313.2195 120.9547 161.3319 42666.1686 120.9547 161.3319
ENERGY: 100000 0.0000 0.0000 0.0000 0.0000 -14178.9691 2411.2173 0.0000 0.0000 172.4560 -11595.2958 29.6089 -11767.7518 -11594.9234 30.9757 -519.5210 -467.0103 29041.7595 3.0938 3.0924
TCL: Running 100000 steps at 60 kelvin.
TCL: Setting parameter langevinTemp to 60
TCL: Running for 100000 steps
ETITLE: TS BOND ANGLE DIHED IMPRP ELECT VDW BOUNDARY MISC KINETIC TOTAL TEMP POTENTIAL TOTAL3 TEMPAVG PRESSURE GPRESSURE VOLUME PRESSAVG GPRESSAVG
ENERGY: 100000 0.0000 0.0000 0.0000 0.0000 -14178.9691 2411.2173 0.0000 0.0000 172.3702 -11595.3815 29.5942 -11767.7518 -11595.0486 29.5942 -518.1575 -467.0384 29041.7595 -518.1575 -467.0384
ENERGY: 200000 0.0000 0.0000 0.0000 0.0000 -14162.0591 2471.7865 0.0000 0.0000 341.3451 -11348.9275 58.6055 -11690.2726 -11348.0218 59.9009 315.3426 338.2202 28962.6343 4.5436 4.4484
TCL: Running 100000 steps at 90 kelvin.
TCL: Setting parameter langevinTemp to 90
TCL: Running for 100000 steps
ETITLE: TS BOND ANGLE DIHED IMPRP ELECT VDW BOUNDARY MISC KINETIC TOTAL TEMP POTENTIAL TOTAL3 TEMPAVG PRESSURE GPRESSURE VOLUME PRESSAVG GPRESSAVG
ENERGY: 200000 0.0000 0.0000 0.0000 0.0000 -14162.0591 2471.7865 0.0000 0.0000 341.1739 -11349.0986 58.5761 -11690.2726 -11348.5116 58.5761 291.9323 338.2577 28962.6343 291.9323 338.2577
ENERGY: 300000 0.0000 0.0000 0.0000 0.0000 -13855.7069 2232.9860 0.0000 0.0000 527.4811 -11095.2398 90.5631 -11622.7209 -11093.9466 90.0242 -1574.5915 -1528.3967 29398.4678 3.6949 3.7181
TCL: Running 100000 steps at 120 kelvin.
TCL: Setting parameter langevinTemp to 120
TCL: Running for 100000 steps
ETITLE: TS BOND ANGLE DIHED IMPRP ELECT VDW BOUNDARY MISC KINETIC TOTAL TEMP POTENTIAL TOTAL3 TEMPAVG PRESSURE GPRESSURE VOLUME PRESSAVG GPRESSAVG
ENERGY: 300000 0.0000 0.0000 0.0000 0.0000 -13855.7069 2232.9860 0.0000 0.0000 527.2116 -11095.5093 90.5169 -11622.7209 -11093.8801 90.5169 -1578.0356 -1529.4228 29398.4678 -1578.0356 -1529.4228
ENERGY: 400000 0.0000 0.0000 0.0000 0.0000 -13922.2158 2456.0348 0.0000 0.0000 684.1623 -10782.0187 117.4637 -11466.1810 -10780.6654 119.7936 1073.7819 1106.9859 28747.3375 4.4677 4.3801
TCL: Running 100000 steps at 150 kelvin.
TCL: Setting parameter langevinTemp to 150
TCL: Running for 100000 steps
ETITLE: TS BOND ANGLE DIHED IMPRP ELECT VDW BOUNDARY MISC KINETIC TOTAL TEMP POTENTIAL TOTAL3 TEMPAVG PRESSURE GPRESSURE VOLUME PRESSAVG GPRESSAVG
ENERGY: 400000 0.0000 0.0000 0.0000 0.0000 -13922.2158 2456.0348 0.0000 0.0000 683.8092 -10782.3718 117.4031 -11466.1810 -10781.2245 117.4031 1059.4254 1106.4073 28747.3375 1059.4254 1106.4073
ENERGY: 500000 0.0000 0.0000 0.0000 0.0000 -13601.2232 2290.4157 0.0000 0.0000 858.8875 -10451.9200 147.4622 -11310.8075 -10450.4287 149.8469 227.2621 268.8663 28956.6040 4.4255 4.4272
TCL: Running 100000 steps at 180 kelvin.
TCL: Setting parameter langevinTemp to 180
TCL: Running for 100000 steps
ETITLE: TS BOND ANGLE DIHED IMPRP ELECT VDW BOUNDARY MISC KINETIC TOTAL TEMP POTENTIAL TOTAL3 TEMPAVG PRESSURE GPRESSURE VOLUME PRESSAVG GPRESSAVG
ENERGY: 500000 0.0000 0.0000 0.0000 0.0000 -13601.2232 2290.4157 0.0000 0.0000 858.4611 -10452.3464 147.3890 -11310.8075 -10450.3529 147.3890 211.1209 267.7677 28956.6040 211.1209 267.7677
ENERGY: 600000 0.0000 0.0000 0.0000 0.0000 -13019.8950 2023.1656 0.0000 0.0000 1065.3925 -9931.3369 182.9171 -10996.7294 -9928.0573 179.4690 -750.5300 -688.1826 28854.8143 3.7045 3.5902
TCL: Running 100000 steps at 210 kelvin.
TCL: Setting parameter langevinTemp to 210
TCL: Running for 100000 steps
ETITLE: TS BOND ANGLE DIHED IMPRP ELECT VDW BOUNDARY MISC KINETIC TOTAL TEMP POTENTIAL TOTAL3 TEMPAVG PRESSURE GPRESSURE VOLUME PRESSAVG GPRESSAVG
ENERGY: 600000 0.0000 0.0000 0.0000 0.0000 -13019.8950 2023.1656 0.0000 0.0000 1064.8728 -9931.8566 182.8278 -10996.7294 -9929.5046 182.8278 -743.3599 -688.1849 28854.8143 -743.3599 -688.1849
ENERGY: 700000 0.0000 0.0000 0.0000 0.0000 -12353.0007 1818.6489 0.0000 0.0000 1176.3884 -9357.9634 201.9739 -10534.3518 -9355.4479 209.3469 -365.2357 -320.3349 28564.9180 3.3074 3.3924
TCL: Running 100000 steps at 240 kelvin.
TCL: Setting parameter langevinTemp to 240
TCL: Running for 100000 steps
ETITLE: TS BOND ANGLE DIHED IMPRP ELECT VDW BOUNDARY MISC KINETIC TOTAL TEMP POTENTIAL TOTAL3 TEMPAVG PRESSURE GPRESSURE VOLUME PRESSAVG GPRESSAVG
ENERGY: 700000 0.0000 0.0000 0.0000 0.0000 -12353.0007 1818.6489 0.0000 0.0000 1175.7680 -9358.5838 201.8674 -10534.3518 -9356.1304 201.8674 -391.7977 -320.6179 28564.9180 -391.7977 -320.6179
ENERGY: 800000 0.0000 0.0000 0.0000 0.0000 -11818.2112 1766.7660 0.0000 0.0000 1407.2183 -8644.2269 241.6051 -10051.4453 -8641.6489 239.7994 466.3492 557.0149 29142.4639 2.6816 2.6160
TCL: Running 100000 steps at 270 kelvin.
TCL: Setting parameter langevinTemp to 270
TCL: Running for 100000 steps
ETITLE: TS BOND ANGLE DIHED IMPRP ELECT VDW BOUNDARY MISC KINETIC TOTAL TEMP POTENTIAL TOTAL3 TEMPAVG PRESSURE GPRESSURE VOLUME PRESSAVG GPRESSAVG
ENERGY: 800000 0.0000 0.0000 0.0000 0.0000 -11818.2112 1766.7660 0.0000 0.0000 1406.5343 -8644.9110 241.4876 -10051.4453 -8642.7878 241.4876 474.9575 555.3615 29142.4639 474.9575 555.3615
ENERGY: 900000 0.0000 0.0000 0.0000 0.0000 -11255.0302 1604.3409 0.0000 0.0000 1528.9588 -8121.7305 262.5067 -9650.6893 -8118.7418 269.9942 480.1848 642.7662 29528.2662 3.2192 3.3571
TCL: Running 1000000 steps at 300 kelvin.
TCL: Setting parameter langevinTemp to 300
TCL: Running for 1000000 steps
ETITLE: TS BOND ANGLE DIHED IMPRP ELECT VDW BOUNDARY MISC KINETIC TOTAL TEMP POTENTIAL TOTAL3 TEMPAVG PRESSURE GPRESSURE VOLUME PRESSAVG GPRESSAVG
ENERGY: 900000 0.0000 0.0000 0.0000 0.0000 -11255.0302 1604.3409 0.0000 0.0000 1528.1628 -8122.5265 262.3700 -9650.6893 -8120.3615 262.3700 545.0939 642.9166 29528.2662 545.0939 642.9166
ENERGY: 1100000 0.0000 0.0000 0.0000 0.0000 -10720.9619 1392.4448 0.0000 0.0000 1820.1849 -7508.3322 312.5072 -9328.5171 -7505.2193 299.7948 -327.2304 -178.3012 30106.5770 3.7950 3.7561
ENERGY: 1300000 0.0000 0.0000 0.0000 0.0000 -10669.5783 1426.8003 0.0000 0.0000 1744.8830 -7497.8951 299.5787 -9242.7781 -7494.1566 300.5614 -72.8885 4.9855 30435.0641 2.6716 2.5840
ENERGY: 1500000 0.0000 0.0000 0.0000 0.0000 -10444.9179 1311.3531 0.0000 0.0000 1711.9024 -7421.6625 293.9162 -9133.5648 -7418.9333 300.7341 -762.0584 -679.3541 30821.9601 3.8843 3.9736
ENERGY: 1700000 0.0000 0.0000 0.0000 0.0000 -10660.3760 1346.3413 0.0000 0.0000 1709.0224 -7605.0123 293.4218 -9314.0347 -7603.2448 299.7885 -930.3589 -811.6115 30399.2766 3.2379 3.3848
ENERGY: 1900000 0.0000 0.0000 0.0000 0.0000 -10677.3271 1411.5089 0.0000 0.0000 1763.2296 -7502.5886 302.7286 -9265.8182 -7499.1401 300.2151 -398.5207 -347.3131 31118.0469 3.1678 3.0705
TCL: Exiting due to exit command.
