Info: SIMULATION PARAMETERS:
Info: TIMESTEP               2
Info: NUMBER OF STEPS        0
Info: STEPS PER CYCLE        10
Info: PERIODIC CELL BASIS 1  37.435 0 0
Info: PERIODIC CELL BASIS 2  0 35.779 0
Info: PERIODIC CELL BASIS 3  0 0 32.993
Info: PERIODIC CELL CENTER   0 0 0
Info: WRAPPING WATERS AROUND PERIODIC BOUNDARIES ON OUTPUT.
Info: WRAPPING ALL CLUSTERS AROUND PERIODIC BOUNDARIES ON OUTPUT.
Info: FIRST LDB TIMESTEP     50
Info: LAST LDB TIMESTEP     -1
Info: HOM BACKGROUND SCALING 1
Info: PME BACKGROUND SCALING 1
Info: MIN ATOMS PER PATCH    40
Info: EMPTY PATCH LOAD       40 ATOMS
Info: INITIAL TEMPERATURE    300
Info: CENTER OF MASS MOVING INITIALLY? NO
Info: DIELECTRIC             1
Info: EXCLUDE                SCALED ONE-FOUR
Info: 1-4 ELECTROSTATICS SCALED BY 0.833333
Info: MODIFIED 1-4 VDW PARAMETERS WILL BE USED
Info: DCD FILENAME           mobley_755351_equil.dcd
Info: DCD FREQUENCY          100000
Info: DCD FIRST STEP         100000
Info: DCD FILE WILL CONTAIN UNIT CELL DATA
Info: XST FILENAME           mobley_755351_equil.xst
Info: XST FREQUENCY          100000
Info: NO VELOCITY DCD OUTPUT
Info: NO FORCE DCD OUTPUT
Info: OUTPUT FILENAME        mobley_755351_equil
Info: BINARY OUTPUT FILES WILL BE USED
Info: RESTART FILENAME       mobley_755351_equil.restart
Info: RESTART FREQUENCY      100000
Info: BINARY RESTART FILES WILL BE USED
Info: CUTOFF                 9
Info: PAIRLIST DISTANCE      11
Info: PAIRLIST SHRINK RATE   0.01
Info: PAIRLIST GROW RATE     0.01
Info: PAIRLIST TRIGGER       0.3
Info: PAIRLISTS PER CYCLE    2
Info: PAIRLISTS ENABLED
Info: MARGIN                 8
Info: HYDROGEN GROUP CUTOFF  2.5
Info: PATCH DIMENSION        21.5
Info: ENERGY OUTPUT STEPS    100000
Info: ENERGY EVALUATION STEPS    100000
Info: OUTPUT ENERGY PRECISION 4
Info: CROSSTERM ENERGY INCLUDED IN DIHEDRAL
Info: TIMING OUTPUT STEPS    1000000
Info: PRESSURE OUTPUT STEPS  100000
Info: FIXED ATOMS ACTIVE
Info: LANGEVIN DYNAMICS ACTIVE
Info: LANGEVIN TEMPERATURE   30
Info: LANGEVIN USING BBK INTEGRATOR
Info: LANGEVIN DAMPING COEFFICIENT IS 1 INVERSE PS
Info: LANGEVIN DYNAMICS APPLIED TO HYDROGENS
Info: LANGEVIN PISTON PRESSURE CONTROL ACTIVE
Info:        TARGET PRESSURE IS 1.01325 BAR
Info:     OSCILLATION PERIOD IS 50 FS
Info:             DECAY TIME IS 25 FS
Info:     PISTON TEMPERATURE IS 300 K
Info:       PRESSURE CONTROL IS GROUP-BASED
Info:    INITIAL STRAIN RATE IS 0 0 0
Info:       CELL FLUCTUATION IS ISOTROPIC
Info: PARTICLE MESH EWALD (PME) ACTIVE
Info: PME TOLERANCE               1e-06
Info: PME EWALD COEFFICIENT       0.348832
Info: PME INTERPOLATION ORDER     4
Info: PME GRID DIMENSIONS         40 36 36
Info: PME MAXIMUM GRID SPACING    1
Info: FULL ELECTROSTATIC EVALUATION FREQUENCY      2
Info: USING VERLET I (r-RESPA) MTS SCHEME.
Info: C1 SPLITTING OF LONG RANGE ELECTROSTATICS
Info: PLACING ATOMS IN PATCHES BY HYDROGEN GROUPS
Info: RIGID BONDS TO HYDROGEN : ALL
Info:         ERROR TOLERANCE : 1e-08
Info:          MAX ITERATIONS : 100
Info: RIGID WATER USING SETTLE ALGORITHM
Info: RANDOM NUMBER SEED     1744092953
Info: USE HYDROGEN BONDS?    NO
Info: Using AMBER format force field!
Info: AMBER PARM FILE        mobley_755351.prmtop
Info: COORDINATE PDB         mobley_755351.pdb
Info: Exclusions will be read from PARM file!
Info: SCNB (VDW SCALING)     2
Info: USING ARITHMETIC MEAN TO COMBINE L-J SIGMA PARAMETERS
Info: BINARY COORDINATES     mobley_755351_min.coor
Info: SUMMARY OF PARAMETERS:
Info: 9 BONDS
Info: 9 ANGLES
Info:   9 HARMONIC
Info:   0 COSINE-BASED
Info: 5 DIHEDRAL
Info: 0 IMPROPER
Info: 0 CROSSTERM
Info: 0 VDW
Info: 45 VDW_PAIRS
Info: 0 NBTHOLE_PAIRS
Info: STRUCTURE SUMMARY:
Info: 2967 ATOMS
Info: 2967 BONDS
Info: 28 ANGLES
Info: 40 DIHEDRALS
Info: 0 IMPROPERS
Info: 0 CROSSTERMS
Info: 3025 EXCLUSIONS
Info: 18 FIXED ATOMS
Info: 2958 RIGID BONDS
Info: 9 RIGID BONDS BETWEEN FIXED ATOMS
Info: 5898 DEGREES OF FREEDOM
Info: 992 HYDROGEN GROUPS
Info: 4 ATOMS IN LARGEST HYDROGEN GROUP
Info: 992 MIGRATION GROUPS
Info: 4 ATOMS IN LARGEST MIGRATION GROUP
Info: 9 HYDROGEN GROUPS WITH ALL ATOMS FIXED
Info: TOTAL MASS = 17832.9 amu
Info: TOTAL CHARGE = -0.000100024 e
Info: MASS DENSITY = 0.67012 g/cm^3
Info: ATOM DENSITY = 0.0671413 atoms/A^3
Info: ADDED 0 IMPLICIT EXCLUSIONS
Info: NONBONDED TABLE R-SQUARED SPACING: 0.0625
Info: NONBONDED TABLE SIZE: 705 POINTS
Info: REMOVING COM VELOCITY 0.0227274 0.0738018 -0.198892
TCL: Running for 100000 steps
ETITLE: TS BOND ANGLE DIHED IMPRP ELECT VDW BOUNDARY MISC KINETIC TOTAL TEMP POTENTIAL TOTAL3 TEMPAVG PRESSURE GPRESSURE VOLUME PRESSAVG GPRESSAVG
ENERGY: 0 0.0000 0.0000 0.0000 0.0000 -13789.1158 2417.0625 0.0000 0.0000 1783.2795 -9588.7739 304.3022 -11372.0534 -9588.4087 304.3022 427.0205 459.1076 44190.3908 427.0205 459.1076
ENERGY: 100000 0.0000 0.0000 0.0000 0.0000 -14301.1629 2399.2115 0.0000 0.0000 173.2784 -11728.6729 29.5686 -11901.9514 -11727.8507 30.9906 -899.7924 -846.3812 29378.1961 3.9715 3.9517
TCL: Running 100000 steps at 60 kelvin.
TCL: Setting parameter langevinTemp to 60
TCL: Running for 100000 steps
ETITLE: TS BOND ANGLE DIHED IMPRP ELECT VDW BOUNDARY MISC KINETIC TOTAL TEMP POTENTIAL TOTAL3 TEMPAVG PRESSURE GPRESSURE VOLUME PRESSAVG GPRESSAVG
ENERGY: 100000 0.0000 0.0000 0.0000 0.0000 -14301.1629 2399.2115 0.0000 0.0000 173.1952 -11728.7562 29.5543 -11901.9514 -11728.4165 29.5543 -917.1766 -845.9809 29378.1961 -917.1766 -845.9809
ENERGY: 200000 0.0000 0.0000 0.0000 0.0000 -14404.8670 2546.7055 0.0000 0.0000 354.4409 -11503.7207 60.4825 -11858.1615 -11502.7156 59.9232 586.2942 671.4912 28837.3396 4.5735 4.5805
TCL: Running 100000 steps at 90 kelvin.
TCL: Setting parameter langevinTemp to 90
TCL: Running for 100000 steps
ETITLE: TS BOND ANGLE DIHED IMPRP ELECT VDW BOUNDARY MISC KINETIC TOTAL TEMP POTENTIAL TOTAL3 TEMPAVG PRESSURE GPRESSURE VOLUME PRESSAVG GPRESSAVG
ENERGY: 200000 0.0000 0.0000 0.0000 0.0000 -14404.8670 2546.7055 0.0000 0.0000 354.2736 -11503.8880 60.4539 -11858.1615 -11503.3418 60.4539 623.1169 671.5087 28837.3396 623.1169 671.5087
ENERGY: 300000 0.0000 0.0000 0.0000 0.0000 -14192.4313 2447.8396 0.0000 0.0000 529.8887 -11214.7030 90.4212 -11744.5917 -11213.9182 89.9887 599.1648 621.5801 28452.4856 4.5064 4.4765
TCL: Running 100000 steps at 120 kelvin.
TCL: Setting parameter langevinTemp to 120
TCL: Running for 100000 steps
ETITLE: TS BOND ANGLE DIHED IMPRP ELECT VDW BOUNDARY MISC KINETIC TOTAL TEMP POTENTIAL TOTAL3 TEMPAVG PRESSURE GPRESSURE VOLUME PRESSAVG GPRESSAVG
ENERGY: 300000 0.0000 0.0000 0.0000 0.0000 -14192.4313 2447.8396 0.0000 0.0000 529.6192 -11214.9725 90.3752 -11744.5917 -11214.0727 90.3752 571.5344 621.5628 28452.4856 571.5344 621.5628
ENERGY: 400000 0.0000 0.0000 0.0000 0.0000 -13922.8522 2320.4639 0.0000 0.0000 690.0683 -10912.3200 117.7545 -11602.3883 -10910.6473 119.9044 -163.3714 -136.1034 28898.0440 3.7521 3.7026
TCL: Running 100000 steps at 150 kelvin.
TCL: Setting parameter langevinTemp to 150
TCL: Running for 100000 steps
ETITLE: TS BOND ANGLE DIHED IMPRP ELECT VDW BOUNDARY MISC KINETIC TOTAL TEMP POTENTIAL TOTAL3 TEMPAVG PRESSURE GPRESSURE VOLUME PRESSAVG GPRESSAVG
ENERGY: 400000 0.0000 0.0000 0.0000 0.0000 -13922.8522 2320.4639 0.0000 0.0000 689.7226 -10912.6657 117.6956 -11602.3883 -10911.3527 117.6956 -198.2191 -136.9937 28898.0440 -198.2191 -136.9937
ENERGY: 500000 0.0000 0.0000 0.0000 0.0000 -13686.3986 2258.7316 0.0000 0.0000 869.4591 -10558.2079 148.3661 -11427.6669 -10556.1017 149.9730 95.5415 172.5716 28616.5669 3.2966 3.2688
TCL: Running 100000 steps at 180 kelvin.
TCL: Setting parameter langevinTemp to 180
TCL: Running for 100000 steps
ETITLE: TS BOND ANGLE DIHED IMPRP ELECT VDW BOUNDARY MISC KINETIC TOTAL TEMP POTENTIAL TOTAL3 TEMPAVG PRESSURE GPRESSURE VOLUME PRESSAVG GPRESSAVG
ENERGY: 500000 0.0000 0.0000 0.0000 0.0000 -13686.3986 2258.7316 0.0000 0.0000 869.0390 -10558.6280 148.2944 -11427.6669 -10556.8529 148.2944 133.3494 171.6512 28616.5669 133.3494 171.6512
ENERGY: 600000 0.0000 0.0000 0.0000 0.0000 -13204.2064 2111.5284 0.0000 0.0000 1057.8364 -10034.8416 180.5112 -11092.6780 -10032.5556 179.8081 73.1366 109.0625 28955.9230 3.9230 3.9626
TCL: Running 100000 steps at 210 kelvin.
TCL: Setting parameter langevinTemp to 210
TCL: Running for 100000 steps
ETITLE: TS BOND ANGLE DIHED IMPRP ELECT VDW BOUNDARY MISC KINETIC TOTAL TEMP POTENTIAL TOTAL3 TEMPAVG PRESSURE GPRESSURE VOLUME PRESSAVG GPRESSAVG
ENERGY: 600000 0.0000 0.0000 0.0000 0.0000 -13204.2064 2111.5284 0.0000 0.0000 1057.3237 -10035.3543 180.4237 -11092.6780 -10033.6980 180.4237 50.9047 108.6619 28955.9230 50.9047 108.6619
ENERGY: 700000 0.0000 0.0000 0.0000 0.0000 -12620.6425 1914.0741 0.0000 0.0000 1233.3475 -9473.2209 210.4607 -10706.5684 -9471.0161 209.7614 -229.3987 -79.6896 29044.6399 4.3649 4.2750
TCL: Running 100000 steps at 240 kelvin.
TCL: Setting parameter langevinTemp to 240
TCL: Running for 100000 steps
ETITLE: TS BOND ANGLE DIHED IMPRP ELECT VDW BOUNDARY MISC KINETIC TOTAL TEMP POTENTIAL TOTAL3 TEMPAVG PRESSURE GPRESSURE VOLUME PRESSAVG GPRESSAVG
ENERGY: 700000 0.0000 0.0000 0.0000 0.0000 -12620.6425 1914.0741 0.0000 0.0000 1232.7218 -9473.8466 210.3540 -10706.5684 -9471.8749 210.3540 -151.2457 -79.0646 29044.6399 -151.2457 -79.0646
ENERGY: 800000 0.0000 0.0000 0.0000 0.0000 -11865.8999 1658.5001 0.0000 0.0000 1427.5613 -8779.8385 243.6017 -10207.3998 -8778.1010 239.3988 -611.0165 -512.4404 29382.6429 3.3637 3.2938
TCL: Running 100000 steps at 270 kelvin.
TCL: Setting parameter langevinTemp to 270
TCL: Running for 100000 steps
ETITLE: TS BOND ANGLE DIHED IMPRP ELECT VDW BOUNDARY MISC KINETIC TOTAL TEMP POTENTIAL TOTAL3 TEMPAVG PRESSURE GPRESSURE VOLUME PRESSAVG GPRESSAVG
ENERGY: 800000 0.0000 0.0000 0.0000 0.0000 -11865.8999 1658.5001 0.0000 0.0000 1426.8624 -8780.5374 243.4825 -10207.3998 -8777.9243 243.4825 -601.1254 -513.7099 29382.6429 -601.1254 -513.7099
ENERGY: 900000 0.0000 0.0000 0.0000 0.0000 -11318.5490 1537.8160 0.0000 0.0000 1587.3682 -8193.3647 270.8715 -9780.7330 -8190.5572 269.4519 -224.9930 -184.5342 29660.2240 3.6928 3.5380
TCL: Running 1000000 steps at 300 kelvin.
TCL: Setting parameter langevinTemp to 300
TCL: Running for 1000000 steps
ETITLE: TS BOND ANGLE DIHED IMPRP ELECT VDW BOUNDARY MISC KINETIC TOTAL TEMP POTENTIAL TOTAL3 TEMPAVG PRESSURE GPRESSURE VOLUME PRESSAVG GPRESSAVG
ENERGY: 900000 0.0000 0.0000 0.0000 0.0000 -11318.5490 1537.8160 0.0000 0.0000 1586.6069 -8194.1261 270.7416 -9780.7330 -8191.9105 270.7416 -256.7419 -186.1857 29660.2240 -256.7419 -186.1857
ENERGY: 1100000 0.0000 0.0000 0.0000 0.0000 -10804.0131 1403.4607 0.0000 0.0000 1738.3860 -7662.1663 296.6415 -9400.5524 -7658.9776 299.8391 -374.8240 -307.5210 30849.1664 4.5879 4.2263
ENERGY: 1300000 0.0000 0.0000 0.0000 0.0000 -10646.1326 1429.9311 0.0000 0.0000 1723.5480 -7492.6535 294.1095 -9216.2015 -7491.2134 300.8334 282.9063 360.6511 30805.3765 3.7538 3.6559
ENERGY: 1500000 0.0000 0.0000 0.0000 0.0000 -10822.1348 1367.9231 0.0000 0.0000 1804.1069 -7650.1047 307.8562 -9454.2117 -7647.0703 300.6970 -495.5060 -498.7579 30175.8816 3.0558 2.8706
ENERGY: 1700000 0.0000 0.0000 0.0000 0.0000 -10905.3401 1489.8384 0.0000 0.0000 1760.7099 -7654.7918 300.4508 -9415.5017 -7650.7164 299.4720 334.5539 390.3719 30490.0305 3.5075 3.4383
ENERGY: 1900000 0.0000 0.0000 0.0000 0.0000 -10740.6665 1384.7191 0.0000 0.0000 1779.2292 -7576.7182 303.6110 -9355.9474 -7570.6824 300.3416 -308.9497 -278.8805 30530.1916 3.6873 3.4567
TCL: Exiting due to exit command.
