Info: SIMULATION PARAMETERS:
Info: TIMESTEP               2
Info: NUMBER OF STEPS        0
Info: STEPS PER CYCLE        10
Info: PERIODIC CELL BASIS 1  36.281 0 0
Info: PERIODIC CELL BASIS 2  0 36.451 0
Info: PERIODIC CELL BASIS 3  0 0 34.68
Info: PERIODIC CELL CENTER   0 0 0
Info: WRAPPING WATERS AROUND PERIODIC BOUNDARIES ON OUTPUT.
Info: WRAPPING ALL CLUSTERS AROUND PERIODIC BOUNDARIES ON OUTPUT.
Info: FIRST LDB TIMESTEP     50
Info: LAST LDB TIMESTEP     -1
Info: HOM BACKGROUND SCALING 1
Info: PME BACKGROUND SCALING 1
Info: MIN ATOMS PER PATCH    40
Info: EMPTY PATCH LOAD       40 ATOMS
Info: INITIAL TEMPERATURE    300
Info: CENTER OF MASS MOVING INITIALLY? NO
Info: DIELECTRIC             1
Info: EXCLUDE                SCALED ONE-FOUR
Info: 1-4 ELECTROSTATICS SCALED BY 0.833333
Info: MODIFIED 1-4 VDW PARAMETERS WILL BE USED
Info: DCD FILENAME           mobley_9209581_equil.dcd
Info: DCD FREQUENCY          100000
Info: DCD FIRST STEP         100000
Info: DCD FILE WILL CONTAIN UNIT CELL DATA
Info: XST FILENAME           mobley_9209581_equil.xst
Info: XST FREQUENCY          100000
Info: NO VELOCITY DCD OUTPUT
Info: NO FORCE DCD OUTPUT
Info: OUTPUT FILENAME        mobley_9209581_equil
Info: BINARY OUTPUT FILES WILL BE USED
Info: RESTART FILENAME       mobley_9209581_equil.restart
Info: RESTART FREQUENCY      100000
Info: BINARY RESTART FILES WILL BE USED
Info: CUTOFF                 9
Info: PAIRLIST DISTANCE      11
Info: PAIRLIST SHRINK RATE   0.01
Info: PAIRLIST GROW RATE     0.01
Info: PAIRLIST TRIGGER       0.3
Info: PAIRLISTS PER CYCLE    2
Info: PAIRLISTS ENABLED
Info: MARGIN                 8
Info: HYDROGEN GROUP CUTOFF  2.5
Info: PATCH DIMENSION        21.5
Info: ENERGY OUTPUT STEPS    100000
Info: ENERGY EVALUATION STEPS    100000
Info: OUTPUT ENERGY PRECISION 4
Info: CROSSTERM ENERGY INCLUDED IN DIHEDRAL
Info: TIMING OUTPUT STEPS    1000000
Info: PRESSURE OUTPUT STEPS  100000
Info: FIXED ATOMS ACTIVE
Info: LANGEVIN DYNAMICS ACTIVE
Info: LANGEVIN TEMPERATURE   30
Info: LANGEVIN USING BBK INTEGRATOR
Info: LANGEVIN DAMPING COEFFICIENT IS 1 INVERSE PS
Info: LANGEVIN DYNAMICS APPLIED TO HYDROGENS
Info: LANGEVIN PISTON PRESSURE CONTROL ACTIVE
Info:        TARGET PRESSURE IS 1.01325 BAR
Info:     OSCILLATION PERIOD IS 50 FS
Info:             DECAY TIME IS 25 FS
Info:     PISTON TEMPERATURE IS 300 K
Info:       PRESSURE CONTROL IS GROUP-BASED
Info:    INITIAL STRAIN RATE IS 0 0 0
Info:       CELL FLUCTUATION IS ISOTROPIC
Info: PARTICLE MESH EWALD (PME) ACTIVE
Info: PME TOLERANCE               1e-06
Info: PME EWALD COEFFICIENT       0.348832
Info: PME INTERPOLATION ORDER     4
Info: PME GRID DIMENSIONS         40 40 36
Info: PME MAXIMUM GRID SPACING    1
Info: FULL ELECTROSTATIC EVALUATION FREQUENCY      2
Info: USING VERLET I (r-RESPA) MTS SCHEME.
Info: C1 SPLITTING OF LONG RANGE ELECTROSTATICS
Info: PLACING ATOMS IN PATCHES BY HYDROGEN GROUPS
Info: RIGID BONDS TO HYDROGEN : ALL
Info:         ERROR TOLERANCE : 1e-08
Info:          MAX ITERATIONS : 100
Info: RIGID WATER USING SETTLE ALGORITHM
Info: RANDOM NUMBER SEED     1743730822
Info: USE HYDROGEN BONDS?    NO
Info: Using AMBER format force field!
Info: AMBER PARM FILE        mobley_9209581.prmtop
Info: COORDINATE PDB         mobley_9209581.pdb
Info: Exclusions will be read from PARM file!
Info: SCNB (VDW SCALING)     2
Info: USING ARITHMETIC MEAN TO COMBINE L-J SIGMA PARAMETERS
Info: BINARY COORDINATES     mobley_9209581_min.coor
Info: SUMMARY OF PARAMETERS:
Info: 4 BONDS
Info: 3 ANGLES
Info:   3 HARMONIC
Info:   0 COSINE-BASED
Info: 1 DIHEDRAL
Info: 0 IMPROPER
Info: 0 CROSSTERM
Info: 0 VDW
Info: 15 VDW_PAIRS
Info: 0 NBTHOLE_PAIRS
Info: STRUCTURE SUMMARY:
Info: 2968 ATOMS
Info: 2967 BONDS
Info: 21 ANGLES
Info: 18 DIHEDRALS
Info: 0 IMPROPERS
Info: 0 CROSSTERMS
Info: 3006 EXCLUSIONS
Info: 13 FIXED ATOMS
Info: 2964 RIGID BONDS
Info: 9 RIGID BONDS BETWEEN FIXED ATOMS
Info: 5910 DEGREES OF FREEDOM
Info: 989 HYDROGEN GROUPS
Info: 4 ATOMS IN LARGEST HYDROGEN GROUP
Info: 989 MIGRATION GROUPS
Info: 4 ATOMS IN LARGEST MIGRATION GROUP
Info: 4 HYDROGEN GROUPS WITH ALL ATOMS FIXED
Info: TOTAL MASS = 17804.9 amu
Info: TOTAL CHARGE = 0.000399988 e
Info: MASS DENSITY = 0.644659 g/cm^3
Info: ATOM DENSITY = 0.0647137 atoms/A^3
Info: ADDED 0 IMPLICIT EXCLUSIONS
Info: NONBONDED TABLE R-SQUARED SPACING: 0.0625
Info: NONBONDED TABLE SIZE: 705 POINTS
Info: REMOVING COM VELOCITY -0.172478 -0.077421 -0.0465898
TCL: Running for 100000 steps
ETITLE: TS BOND ANGLE DIHED IMPRP ELECT VDW BOUNDARY MISC KINETIC TOTAL TEMP POTENTIAL TOTAL3 TEMPAVG PRESSURE GPRESSURE VOLUME PRESSAVG GPRESSAVG
ENERGY: 0 0.0000 0.0000 0.0000 0.0000 -13792.4457 2439.1972 0.0000 0.0000 1750.5264 -9602.7221 298.1066 -11353.2485 -9602.3681 298.1066 550.6923 581.0884 45863.5624 550.6923 581.0884
ENERGY: 100000 0.0000 0.0000 0.0000 0.0000 -14118.2754 2281.0585 0.0000 0.0000 177.3080 -11659.9088 30.1947 -11837.2168 -11659.4328 30.8924 -1570.7507 -1527.3542 29917.2944 3.9954 3.9981
TCL: Running 100000 steps at 60 kelvin.
TCL: Setting parameter langevinTemp to 60
TCL: Running for 100000 steps
ETITLE: TS BOND ANGLE DIHED IMPRP ELECT VDW BOUNDARY MISC KINETIC TOTAL TEMP POTENTIAL TOTAL3 TEMPAVG PRESSURE GPRESSURE VOLUME PRESSAVG GPRESSAVG
ENERGY: 100000 0.0000 0.0000 0.0000 0.0000 -14118.2754 2281.0585 0.0000 0.0000 177.2198 -11659.9970 30.1797 -11837.2168 -11659.5863 30.1797 -1579.6292 -1527.3296 29917.2944 -1579.6292 -1527.3296
ENERGY: 200000 0.0000 0.0000 0.0000 0.0000 -14148.7326 2387.1170 0.0000 0.0000 351.6954 -11409.9202 59.8921 -11761.6156 -11408.8804 60.0353 -321.9198 -248.8151 29343.4095 5.8837 5.9708
TCL: Running 100000 steps at 90 kelvin.
TCL: Setting parameter langevinTemp to 90
TCL: Running for 100000 steps
ETITLE: TS BOND ANGLE DIHED IMPRP ELECT VDW BOUNDARY MISC KINETIC TOTAL TEMP POTENTIAL TOTAL3 TEMPAVG PRESSURE GPRESSURE VOLUME PRESSAVG GPRESSAVG
ENERGY: 200000 0.0000 0.0000 0.0000 0.0000 -14148.7326 2387.1170 0.0000 0.0000 351.5158 -11410.0998 59.8615 -11761.6156 -11409.4455 59.8615 -308.1586 -248.7123 29343.4095 -308.1586 -248.7123
ENERGY: 300000 0.0000 0.0000 0.0000 0.0000 -14044.8309 2363.8883 0.0000 0.0000 539.4881 -11141.4546 91.8723 -11680.9426 -11140.3118 90.0492 -308.2296 -262.4622 29329.8227 3.3302 3.4017
TCL: Running 100000 steps at 120 kelvin.
TCL: Setting parameter langevinTemp to 120
TCL: Running for 100000 steps
ETITLE: TS BOND ANGLE DIHED IMPRP ELECT VDW BOUNDARY MISC KINETIC TOTAL TEMP POTENTIAL TOTAL3 TEMPAVG PRESSURE GPRESSURE VOLUME PRESSAVG GPRESSAVG
ENERGY: 300000 0.0000 0.0000 0.0000 0.0000 -14044.8309 2363.8883 0.0000 0.0000 539.2186 -11141.7241 91.8264 -11680.9426 -11140.4817 91.8264 -307.2775 -262.9114 29329.8227 -307.2775 -262.9114
ENERGY: 400000 0.0000 0.0000 0.0000 0.0000 -13859.1387 2325.0935 0.0000 0.0000 741.9357 -10792.1095 126.3482 -11534.0452 -10790.2404 120.0202 72.3529 80.8128 29235.2919 4.0301 3.9528
TCL: Running 100000 steps at 150 kelvin.
TCL: Setting parameter langevinTemp to 150
TCL: Running for 100000 steps
ETITLE: TS BOND ANGLE DIHED IMPRP ELECT VDW BOUNDARY MISC KINETIC TOTAL TEMP POTENTIAL TOTAL3 TEMPAVG PRESSURE GPRESSURE VOLUME PRESSAVG GPRESSAVG
ENERGY: 400000 0.0000 0.0000 0.0000 0.0000 -13859.1387 2325.0935 0.0000 0.0000 741.5742 -10792.4710 126.2867 -11534.0452 -10791.3179 126.2867 13.1096 81.8911 29235.2919 13.1096 81.8911
ENERGY: 500000 0.0000 0.0000 0.0000 0.0000 -13725.6767 2334.9547 0.0000 0.0000 877.4045 -10513.3175 149.4179 -11390.7219 -10511.3090 150.1295 579.9295 633.1782 28965.1351 3.3490 3.4148
TCL: Running 100000 steps at 180 kelvin.
TCL: Setting parameter langevinTemp to 180
TCL: Running for 100000 steps
ETITLE: TS BOND ANGLE DIHED IMPRP ELECT VDW BOUNDARY MISC KINETIC TOTAL TEMP POTENTIAL TOTAL3 TEMPAVG PRESSURE GPRESSURE VOLUME PRESSAVG GPRESSAVG
ENERGY: 500000 0.0000 0.0000 0.0000 0.0000 -13725.6767 2334.9547 0.0000 0.0000 876.9639 -10513.7580 149.3429 -11390.7219 -10512.2519 149.3429 574.6150 632.8752 28965.1351 574.6150 632.8752
ENERGY: 600000 0.0000 0.0000 0.0000 0.0000 -13339.9129 2211.7501 0.0000 0.0000 1068.5849 -10059.5779 181.9751 -11128.1629 -10057.2735 179.7146 527.1741 627.2675 28841.2619 4.1640 4.1560
TCL: Running 100000 steps at 210 kelvin.
TCL: Setting parameter langevinTemp to 210
TCL: Running for 100000 steps
ETITLE: TS BOND ANGLE DIHED IMPRP ELECT VDW BOUNDARY MISC KINETIC TOTAL TEMP POTENTIAL TOTAL3 TEMPAVG PRESSURE GPRESSURE VOLUME PRESSAVG GPRESSAVG
ENERGY: 600000 0.0000 0.0000 0.0000 0.0000 -13339.9129 2211.7501 0.0000 0.0000 1068.0543 -10060.1086 181.8847 -11128.1629 -10057.8280 181.8847 566.0375 626.6246 28841.2619 566.0375 626.6246
ENERGY: 700000 0.0000 0.0000 0.0000 0.0000 -12586.1329 1935.0296 0.0000 0.0000 1259.0212 -9392.0820 214.4055 -10651.1033 -9388.4536 209.9291 247.7633 358.9590 28582.1837 3.3171 3.2967
TCL: Running 100000 steps at 240 kelvin.
TCL: Setting parameter langevinTemp to 240
TCL: Running for 100000 steps
ETITLE: TS BOND ANGLE DIHED IMPRP ELECT VDW BOUNDARY MISC KINETIC TOTAL TEMP POTENTIAL TOTAL3 TEMPAVG PRESSURE GPRESSURE VOLUME PRESSAVG GPRESSAVG
ENERGY: 700000 0.0000 0.0000 0.0000 0.0000 -12586.1329 1935.0296 0.0000 0.0000 1258.3930 -9392.7102 214.2985 -10651.1033 -9389.9539 214.2985 275.9099 360.1824 28582.1837 275.9099 360.1824
ENERGY: 800000 0.0000 0.0000 0.0000 0.0000 -11835.4403 1631.2321 0.0000 0.0000 1416.3021 -8787.9061 241.1897 -10204.2082 -8784.6275 240.0013 -831.8494 -725.7463 29257.2711 3.9754 3.9818
TCL: Running 100000 steps at 270 kelvin.
TCL: Setting parameter langevinTemp to 270
TCL: Running for 100000 steps
ETITLE: TS BOND ANGLE DIHED IMPRP ELECT VDW BOUNDARY MISC KINETIC TOTAL TEMP POTENTIAL TOTAL3 TEMPAVG PRESSURE GPRESSURE VOLUME PRESSAVG GPRESSAVG
ENERGY: 800000 0.0000 0.0000 0.0000 0.0000 -11835.4403 1631.2321 0.0000 0.0000 1415.5996 -8788.6086 241.0701 -10204.2082 -8786.2614 241.0701 -801.6600 -724.9044 29257.2711 -801.6600 -724.9044
ENERGY: 900000 0.0000 0.0000 0.0000 0.0000 -11281.2070 1569.8982 0.0000 0.0000 1606.7552 -8104.5536 273.6230 -9711.3088 -8099.1170 270.3167 -222.2180 -36.0598 30137.2028 2.9648 3.0168
TCL: Running 1000000 steps at 300 kelvin.
TCL: Setting parameter langevinTemp to 300
TCL: Running for 1000000 steps
ETITLE: TS BOND ANGLE DIHED IMPRP ELECT VDW BOUNDARY MISC KINETIC TOTAL TEMP POTENTIAL TOTAL3 TEMPAVG PRESSURE GPRESSURE VOLUME PRESSAVG GPRESSAVG
ENERGY: 900000 0.0000 0.0000 0.0000 0.0000 -11281.2070 1569.8982 0.0000 0.0000 1605.9627 -8105.3461 273.4881 -9711.3088 -8103.4905 273.4881 -123.8806 -33.9082 30137.2028 -123.8806 -33.9082
ENERGY: 1100000 0.0000 0.0000 0.0000 0.0000 -10754.1056 1408.9594 0.0000 0.0000 1778.9052 -7566.2409 302.9394 -9345.1461 -7565.1033 300.5053 -146.3066 -66.9861 30389.8392 3.3191 3.1962
ENERGY: 1300000 0.0000 0.0000 0.0000 0.0000 -10898.0982 1544.0549 0.0000 0.0000 1793.6289 -7560.4145 305.4467 -9354.0434 -7555.6632 300.2247 778.1428 845.1135 30544.6201 3.2049 3.0478
ENERGY: 1500000 0.0000 0.0000 0.0000 0.0000 -10922.9584 1529.1505 0.0000 0.0000 1807.3771 -7586.4309 307.7880 -9393.8079 -7583.9922 300.4802 510.5185 641.0871 30414.7527 3.0284 2.9716
ENERGY: 1700000 0.0000 0.0000 0.0000 0.0000 -10713.0584 1361.5200 0.0000 0.0000 1779.3991 -7572.1393 303.0235 -9351.5383 -7568.2548 299.9108 -444.8154 -436.3352 30455.3249 4.8664 4.6288
ENERGY: 1900000 0.0000 0.0000 0.0000 0.0000 -10792.1833 1482.7158 0.0000 0.0000 1766.4655 -7543.0020 300.8209 -9309.4675 -7539.4115 299.8655 489.0373 587.8920 30341.3855 2.9098 2.6732
TCL: Exiting due to exit command.
