Info: SIMULATION PARAMETERS:
Info: TIMESTEP               2
Info: NUMBER OF STEPS        0
Info: STEPS PER CYCLE        10
Info: PERIODIC CELL BASIS 1  36.592 0 0
Info: PERIODIC CELL BASIS 2  0 35.847 0
Info: PERIODIC CELL BASIS 3  0 0 34.229
Info: PERIODIC CELL CENTER   0 0 0
Info: WRAPPING WATERS AROUND PERIODIC BOUNDARIES ON OUTPUT.
Info: WRAPPING ALL CLUSTERS AROUND PERIODIC BOUNDARIES ON OUTPUT.
Info: FIRST LDB TIMESTEP     50
Info: LAST LDB TIMESTEP     -1
Info: HOM BACKGROUND SCALING 1
Info: PME BACKGROUND SCALING 1
Info: MIN ATOMS PER PATCH    40
Info: EMPTY PATCH LOAD       40 ATOMS
Info: INITIAL TEMPERATURE    300
Info: CENTER OF MASS MOVING INITIALLY? NO
Info: DIELECTRIC             1
Info: EXCLUDE                SCALED ONE-FOUR
Info: 1-4 ELECTROSTATICS SCALED BY 0.833333
Info: MODIFIED 1-4 VDW PARAMETERS WILL BE USED
Info: DCD FILENAME           mobley_7578802_equil.dcd
Info: DCD FREQUENCY          100000
Info: DCD FIRST STEP         100000
Info: DCD FILE WILL CONTAIN UNIT CELL DATA
Info: XST FILENAME           mobley_7578802_equil.xst
Info: XST FREQUENCY          100000
Info: NO VELOCITY DCD OUTPUT
Info: NO FORCE DCD OUTPUT
Info: OUTPUT FILENAME        mobley_7578802_equil
Info: BINARY OUTPUT FILES WILL BE USED
Info: RESTART FILENAME       mobley_7578802_equil.restart
Info: RESTART FREQUENCY      100000
Info: BINARY RESTART FILES WILL BE USED
Info: CUTOFF                 9
Info: PAIRLIST DISTANCE      11
Info: PAIRLIST SHRINK RATE   0.01
Info: PAIRLIST GROW RATE     0.01
Info: PAIRLIST TRIGGER       0.3
Info: PAIRLISTS PER CYCLE    2
Info: PAIRLISTS ENABLED
Info: MARGIN                 8
Info: HYDROGEN GROUP CUTOFF  2.5
Info: PATCH DIMENSION        21.5
Info: ENERGY OUTPUT STEPS    100000
Info: ENERGY EVALUATION STEPS    100000
Info: OUTPUT ENERGY PRECISION 4
Info: CROSSTERM ENERGY INCLUDED IN DIHEDRAL
Info: TIMING OUTPUT STEPS    1000000
Info: PRESSURE OUTPUT STEPS  100000
Info: FIXED ATOMS ACTIVE
Info: LANGEVIN DYNAMICS ACTIVE
Info: LANGEVIN TEMPERATURE   30
Info: LANGEVIN USING BBK INTEGRATOR
Info: LANGEVIN DAMPING COEFFICIENT IS 1 INVERSE PS
Info: LANGEVIN DYNAMICS APPLIED TO HYDROGENS
Info: LANGEVIN PISTON PRESSURE CONTROL ACTIVE
Info:        TARGET PRESSURE IS 1.01325 BAR
Info:     OSCILLATION PERIOD IS 50 FS
Info:             DECAY TIME IS 25 FS
Info:     PISTON TEMPERATURE IS 300 K
Info:       PRESSURE CONTROL IS GROUP-BASED
Info:    INITIAL STRAIN RATE IS 0 0 0
Info:       CELL FLUCTUATION IS ISOTROPIC
Info: PARTICLE MESH EWALD (PME) ACTIVE
Info: PME TOLERANCE               1e-06
Info: PME EWALD COEFFICIENT       0.348832
Info: PME INTERPOLATION ORDER     4
Info: PME GRID DIMENSIONS         40 36 36
Info: PME MAXIMUM GRID SPACING    1
Info: FULL ELECTROSTATIC EVALUATION FREQUENCY      2
Info: USING VERLET I (r-RESPA) MTS SCHEME.
Info: C1 SPLITTING OF LONG RANGE ELECTROSTATICS
Info: PLACING ATOMS IN PATCHES BY HYDROGEN GROUPS
Info: RIGID BONDS TO HYDROGEN : ALL
Info:         ERROR TOLERANCE : 1e-08
Info:          MAX ITERATIONS : 100
Info: RIGID WATER USING SETTLE ALGORITHM
Info: RANDOM NUMBER SEED     1743678691
Info: USE HYDROGEN BONDS?    NO
Info: Using AMBER format force field!
Info: AMBER PARM FILE        mobley_7578802.prmtop
Info: COORDINATE PDB         mobley_7578802.pdb
Info: Exclusions will be read from PARM file!
Info: SCNB (VDW SCALING)     2
Info: USING ARITHMETIC MEAN TO COMBINE L-J SIGMA PARAMETERS
Info: BINARY COORDINATES     mobley_7578802_min.coor
Info: SUMMARY OF PARAMETERS:
Info: 4 BONDS
Info: 2 ANGLES
Info:   2 HARMONIC
Info:   0 COSINE-BASED
Info: 0 DIHEDRAL
Info: 0 IMPROPER
Info: 0 CROSSTERM
Info: 0 VDW
Info: 15 VDW_PAIRS
Info: 0 NBTHOLE_PAIRS
Info: STRUCTURE SUMMARY:
Info: 2966 ATOMS
Info: 2965 BONDS
Info: 6 ANGLES
Info: 0 DIHEDRALS
Info: 0 IMPROPERS
Info: 0 CROSSTERMS
Info: 2971 EXCLUSIONS
Info: 5 FIXED ATOMS
Info: 2962 RIGID BONDS
Info: 1 RIGID BONDS BETWEEN FIXED ATOMS
Info: 5922 DEGREES OF FREEDOM
Info: 991 HYDROGEN GROUPS
Info: 3 ATOMS IN LARGEST HYDROGEN GROUP
Info: 991 MIGRATION GROUPS
Info: 3 ATOMS IN LARGEST MIGRATION GROUP
Info: 4 HYDROGEN GROUPS WITH ALL ATOMS FIXED
Info: TOTAL MASS = 18034.5 amu
Info: TOTAL CHARGE = 9.9998e-05 e
Info: MASS DENSITY = 0.667007 g/cm^3
Info: ATOM DENSITY = 0.0660599 atoms/A^3
Info: ADDED 0 IMPLICIT EXCLUSIONS
Info: NONBONDED TABLE R-SQUARED SPACING: 0.0625
Info: NONBONDED TABLE SIZE: 705 POINTS
Info: REMOVING COM VELOCITY 0.31571 0.239229 0.099699
TCL: Running for 100000 steps
ETITLE: TS BOND ANGLE DIHED IMPRP ELECT VDW BOUNDARY MISC KINETIC TOTAL TEMP POTENTIAL TOTAL3 TEMPAVG PRESSURE GPRESSURE VOLUME PRESSAVG GPRESSAVG
ENERGY: 0 0.0000 0.0000 0.0000 0.0000 -13753.4240 2420.1857 0.0000 0.0000 1756.8677 -9576.3706 298.5802 -11333.2383 -9576.0511 298.5802 465.5404 495.1068 44898.6388 465.5404 495.1068
ENERGY: 100000 0.0000 0.0000 0.0000 0.0000 -14182.4007 2389.5173 0.0000 0.0000 174.4591 -11618.4243 29.6494 -11792.8834 -11617.8597 30.8948 -635.7215 -549.6095 29415.9231 4.6508 4.5961
TCL: Running 100000 steps at 60 kelvin.
TCL: Setting parameter langevinTemp to 60
TCL: Running for 100000 steps
ETITLE: TS BOND ANGLE DIHED IMPRP ELECT VDW BOUNDARY MISC KINETIC TOTAL TEMP POTENTIAL TOTAL3 TEMPAVG PRESSURE GPRESSURE VOLUME PRESSAVG GPRESSAVG
ENERGY: 100000 0.0000 0.0000 0.0000 0.0000 -14182.4007 2389.5173 0.0000 0.0000 174.3700 -11618.5133 29.6342 -11792.8834 -11618.0571 29.6342 -622.4777 -549.7126 29415.9231 -622.4777 -549.7126
ENERGY: 200000 0.0000 0.0000 0.0000 0.0000 -14271.3266 2529.4630 0.0000 0.0000 353.3530 -11388.5106 60.0525 -11741.8636 -11387.8351 59.9709 757.3148 811.4007 28892.6195 3.5113 3.4680
TCL: Running 100000 steps at 90 kelvin.
TCL: Setting parameter langevinTemp to 90
TCL: Running for 100000 steps
ETITLE: TS BOND ANGLE DIHED IMPRP ELECT VDW BOUNDARY MISC KINETIC TOTAL TEMP POTENTIAL TOTAL3 TEMPAVG PRESSURE GPRESSURE VOLUME PRESSAVG GPRESSAVG
ENERGY: 200000 0.0000 0.0000 0.0000 0.0000 -14271.3266 2529.4630 0.0000 0.0000 353.1777 -11388.6859 60.0227 -11741.8636 -11387.8561 60.0227 764.6413 811.3002 28892.6195 764.6413 811.3002
ENERGY: 300000 0.0000 0.0000 0.0000 0.0000 -14064.6194 2409.1474 0.0000 0.0000 538.2832 -11117.1888 91.4814 -11655.4719 -11115.8230 89.6921 110.5499 132.2160 28972.4897 4.0716 4.0159
TCL: Running 100000 steps at 120 kelvin.
TCL: Setting parameter langevinTemp to 120
TCL: Running for 100000 steps
ETITLE: TS BOND ANGLE DIHED IMPRP ELECT VDW BOUNDARY MISC KINETIC TOTAL TEMP POTENTIAL TOTAL3 TEMPAVG PRESSURE GPRESSURE VOLUME PRESSAVG GPRESSAVG
ENERGY: 300000 0.0000 0.0000 0.0000 0.0000 -14064.6194 2409.1474 0.0000 0.0000 538.0280 -11117.4439 91.4380 -11655.4719 -11116.3047 91.4380 79.4357 132.3631 28972.4897 79.4357 132.3631
ENERGY: 400000 0.0000 0.0000 0.0000 0.0000 -13818.6602 2282.3273 0.0000 0.0000 725.1500 -10811.1830 123.2395 -11536.3330 -10808.7994 119.8411 -476.0405 -403.9079 28992.9542 3.3605 3.4000
TCL: Running 100000 steps at 150 kelvin.
TCL: Setting parameter langevinTemp to 150
TCL: Running for 100000 steps
ETITLE: TS BOND ANGLE DIHED IMPRP ELECT VDW BOUNDARY MISC KINETIC TOTAL TEMP POTENTIAL TOTAL3 TEMPAVG PRESSURE GPRESSURE VOLUME PRESSAVG GPRESSAVG
ENERGY: 400000 0.0000 0.0000 0.0000 0.0000 -13818.6602 2282.3273 0.0000 0.0000 724.7943 -10811.5386 123.1790 -11536.3330 -10810.4340 123.1790 -469.4671 -403.7090 28992.9542 -469.4671 -403.7090
ENERGY: 500000 0.0000 0.0000 0.0000 0.0000 -13587.3482 2211.7116 0.0000 0.0000 890.5536 -10485.0830 151.3499 -11375.6366 -10482.4303 149.9270 -676.8617 -588.8485 29354.4773 3.4414 3.4765
TCL: Running 100000 steps at 180 kelvin.
TCL: Setting parameter langevinTemp to 180
TCL: Running for 100000 steps
ETITLE: TS BOND ANGLE DIHED IMPRP ELECT VDW BOUNDARY MISC KINETIC TOTAL TEMP POTENTIAL TOTAL3 TEMPAVG PRESSURE GPRESSURE VOLUME PRESSAVG GPRESSAVG
ENERGY: 500000 0.0000 0.0000 0.0000 0.0000 -13587.3482 2211.7116 0.0000 0.0000 890.1092 -10485.5274 151.2743 -11375.6366 -10483.6596 151.2743 -642.8768 -589.2319 29354.4773 -642.8768 -589.2319
ENERGY: 600000 0.0000 0.0000 0.0000 0.0000 -13219.9880 2156.3818 0.0000 0.0000 1078.3848 -9985.2214 183.2718 -11063.6062 -9981.4249 179.8378 205.6675 257.5332 29005.2235 3.1488 3.1478
TCL: Running 100000 steps at 210 kelvin.
TCL: Setting parameter langevinTemp to 210
TCL: Running for 100000 steps
ETITLE: TS BOND ANGLE DIHED IMPRP ELECT VDW BOUNDARY MISC KINETIC TOTAL TEMP POTENTIAL TOTAL3 TEMPAVG PRESSURE GPRESSURE VOLUME PRESSAVG GPRESSAVG
ENERGY: 600000 0.0000 0.0000 0.0000 0.0000 -13219.9880 2156.3818 0.0000 0.0000 1077.8437 -9985.7625 183.1799 -11063.6062 -9984.1878 183.1799 191.0433 259.1652 29005.2235 191.0433 259.1652
ENERGY: 700000 0.0000 0.0000 0.0000 0.0000 -12472.7685 1875.7770 0.0000 0.0000 1264.0579 -9332.9336 214.8270 -10596.9915 -9329.4651 210.0458 -210.3621 -135.2073 29178.5398 2.2722 2.3403
TCL: Running 100000 steps at 240 kelvin.
TCL: Setting parameter langevinTemp to 240
TCL: Running for 100000 steps
ETITLE: TS BOND ANGLE DIHED IMPRP ELECT VDW BOUNDARY MISC KINETIC TOTAL TEMP POTENTIAL TOTAL3 TEMPAVG PRESSURE GPRESSURE VOLUME PRESSAVG GPRESSAVG
ENERGY: 700000 0.0000 0.0000 0.0000 0.0000 -12472.7685 1875.7770 0.0000 0.0000 1263.4478 -9333.5437 214.7234 -10596.9915 -9331.2851 214.7234 -216.8929 -134.2351 29178.5398 -216.8929 -134.2351
ENERGY: 800000 0.0000 0.0000 0.0000 0.0000 -11931.7175 1716.3988 0.0000 0.0000 1409.8837 -8805.4350 239.6102 -10215.3187 -8803.3096 239.8191 -452.1595 -322.2985 29416.5192 3.1775 3.1527
TCL: Running 100000 steps at 270 kelvin.
TCL: Setting parameter langevinTemp to 270
TCL: Running for 100000 steps
ETITLE: TS BOND ANGLE DIHED IMPRP ELECT VDW BOUNDARY MISC KINETIC TOTAL TEMP POTENTIAL TOTAL3 TEMPAVG PRESSURE GPRESSURE VOLUME PRESSAVG GPRESSAVG
ENERGY: 800000 0.0000 0.0000 0.0000 0.0000 -11931.7175 1716.3988 0.0000 0.0000 1409.1661 -8806.1526 239.4882 -10215.3187 -8804.0923 239.4882 -410.4836 -323.7656 29416.5192 -410.4836 -323.7656
ENERGY: 900000 0.0000 0.0000 0.0000 0.0000 -11443.0293 1617.8658 0.0000 0.0000 1554.9464 -8270.2171 264.2636 -9825.1635 -8267.1059 269.6036 130.8489 219.9295 29590.5581 5.0779 5.2813
TCL: Running 1000000 steps at 300 kelvin.
TCL: Setting parameter langevinTemp to 300
TCL: Running for 1000000 steps
ETITLE: TS BOND ANGLE DIHED IMPRP ELECT VDW BOUNDARY MISC KINETIC TOTAL TEMP POTENTIAL TOTAL3 TEMPAVG PRESSURE GPRESSURE VOLUME PRESSAVG GPRESSAVG
ENERGY: 900000 0.0000 0.0000 0.0000 0.0000 -11443.0293 1617.8658 0.0000 0.0000 1554.1782 -8270.9853 264.1331 -9825.1635 -8268.3241 264.1331 139.9537 217.2270 29590.5581 139.9537 217.2270
ENERGY: 1100000 0.0000 0.0000 0.0000 0.0000 -10761.8540 1439.2621 0.0000 0.0000 1761.0657 -7561.5261 299.2937 -9322.5919 -7556.9478 300.3984 6.7111 104.1503 30537.3443 3.0376 2.9422
ENERGY: 1300000 0.0000 0.0000 0.0000 0.0000 -10811.7898 1418.9337 0.0000 0.0000 1760.5184 -7632.3377 299.2007 -9392.8561 -7626.1507 299.4888 -653.8554 -517.3901 31030.4370 2.7809 2.9530
ENERGY: 1500000 0.0000 0.0000 0.0000 0.0000 -10763.9682 1413.4902 0.0000 0.0000 1801.6281 -7548.8499 306.1873 -9350.4780 -7544.9350 300.6228 -195.8182 -96.2933 30422.3541 3.1566 3.0248
ENERGY: 1700000 0.0000 0.0000 0.0000 0.0000 -10805.9080 1409.2972 0.0000 0.0000 1816.2165 -7580.3942 308.6666 -9396.6108 -7577.7311 299.9712 -683.3388 -569.9406 30785.8077 3.5435 3.6386
ENERGY: 1900000 0.0000 0.0000 0.0000 0.0000 -10801.4327 1452.3676 0.0000 0.0000 1763.9441 -7585.1210 299.7829 -9349.0651 -7581.7407 300.0485 81.1764 175.8103 30510.0850 2.2602 2.1775
TCL: Exiting due to exit command.
