Info: SIMULATION PARAMETERS:
Info: TIMESTEP               2
Info: NUMBER OF STEPS        0
Info: STEPS PER CYCLE        10
Info: PERIODIC CELL BASIS 1  36.592 0 0
Info: PERIODIC CELL BASIS 2  0 36.762 0
Info: PERIODIC CELL BASIS 3  0 0 33.088
Info: PERIODIC CELL CENTER   0 0 0
Info: WRAPPING WATERS AROUND PERIODIC BOUNDARIES ON OUTPUT.
Info: WRAPPING ALL CLUSTERS AROUND PERIODIC BOUNDARIES ON OUTPUT.
Info: FIRST LDB TIMESTEP     50
Info: LAST LDB TIMESTEP     -1
Info: HOM BACKGROUND SCALING 1
Info: PME BACKGROUND SCALING 1
Info: MIN ATOMS PER PATCH    40
Info: EMPTY PATCH LOAD       40 ATOMS
Info: INITIAL TEMPERATURE    300
Info: CENTER OF MASS MOVING INITIALLY? NO
Info: DIELECTRIC             1
Info: EXCLUDE                SCALED ONE-FOUR
Info: 1-4 ELECTROSTATICS SCALED BY 0.833333
Info: MODIFIED 1-4 VDW PARAMETERS WILL BE USED
Info: DCD FILENAME           mobley_6239320_equil.dcd
Info: DCD FREQUENCY          100000
Info: DCD FIRST STEP         100000
Info: DCD FILE WILL CONTAIN UNIT CELL DATA
Info: XST FILENAME           mobley_6239320_equil.xst
Info: XST FREQUENCY          100000
Info: NO VELOCITY DCD OUTPUT
Info: NO FORCE DCD OUTPUT
Info: OUTPUT FILENAME        mobley_6239320_equil
Info: BINARY OUTPUT FILES WILL BE USED
Info: RESTART FILENAME       mobley_6239320_equil.restart
Info: RESTART FREQUENCY      100000
Info: BINARY RESTART FILES WILL BE USED
Info: CUTOFF                 9
Info: PAIRLIST DISTANCE      11
Info: PAIRLIST SHRINK RATE   0.01
Info: PAIRLIST GROW RATE     0.01
Info: PAIRLIST TRIGGER       0.3
Info: PAIRLISTS PER CYCLE    2
Info: PAIRLISTS ENABLED
Info: MARGIN                 8
Info: HYDROGEN GROUP CUTOFF  2.5
Info: PATCH DIMENSION        21.5
Info: ENERGY OUTPUT STEPS    100000
Info: ENERGY EVALUATION STEPS    100000
Info: OUTPUT ENERGY PRECISION 4
Info: CROSSTERM ENERGY INCLUDED IN DIHEDRAL
Info: TIMING OUTPUT STEPS    1000000
Info: PRESSURE OUTPUT STEPS  100000
Info: FIXED ATOMS ACTIVE
Info: LANGEVIN DYNAMICS ACTIVE
Info: LANGEVIN TEMPERATURE   30
Info: LANGEVIN USING BBK INTEGRATOR
Info: LANGEVIN DAMPING COEFFICIENT IS 1 INVERSE PS
Info: LANGEVIN DYNAMICS APPLIED TO HYDROGENS
Info: LANGEVIN PISTON PRESSURE CONTROL ACTIVE
Info:        TARGET PRESSURE IS 1.01325 BAR
Info:     OSCILLATION PERIOD IS 50 FS
Info:             DECAY TIME IS 25 FS
Info:     PISTON TEMPERATURE IS 300 K
Info:       PRESSURE CONTROL IS GROUP-BASED
Info:    INITIAL STRAIN RATE IS 0 0 0
Info:       CELL FLUCTUATION IS ISOTROPIC
Info: PARTICLE MESH EWALD (PME) ACTIVE
Info: PME TOLERANCE               1e-06
Info: PME EWALD COEFFICIENT       0.348832
Info: PME INTERPOLATION ORDER     4
Info: PME GRID DIMENSIONS         40 40 36
Info: PME MAXIMUM GRID SPACING    1
Info: FULL ELECTROSTATIC EVALUATION FREQUENCY      2
Info: USING VERLET I (r-RESPA) MTS SCHEME.
Info: C1 SPLITTING OF LONG RANGE ELECTROSTATICS
Info: PLACING ATOMS IN PATCHES BY HYDROGEN GROUPS
Info: RIGID BONDS TO HYDROGEN : ALL
Info:         ERROR TOLERANCE : 1e-08
Info:          MAX ITERATIONS : 100
Info: RIGID WATER USING SETTLE ALGORITHM
Info: RANDOM NUMBER SEED     1743720917
Info: USE HYDROGEN BONDS?    NO
Info: Using AMBER format force field!
Info: AMBER PARM FILE        mobley_6239320.prmtop
Info: COORDINATE PDB         mobley_6239320.pdb
Info: Exclusions will be read from PARM file!
Info: SCNB (VDW SCALING)     2
Info: USING ARITHMETIC MEAN TO COMBINE L-J SIGMA PARAMETERS
Info: BINARY COORDINATES     mobley_6239320_min.coor
Info: SUMMARY OF PARAMETERS:
Info: 5 BONDS
Info: 4 ANGLES
Info:   4 HARMONIC
Info:   0 COSINE-BASED
Info: 4 DIHEDRAL
Info: 0 IMPROPER
Info: 0 CROSSTERM
Info: 0 VDW
Info: 21 VDW_PAIRS
Info: 0 NBTHOLE_PAIRS
Info: STRUCTURE SUMMARY:
Info: 2964 ATOMS
Info: 2964 BONDS
Info: 18 ANGLES
Info: 36 DIHEDRALS
Info: 0 IMPROPERS
Info: 0 CROSSTERMS
Info: 3003 EXCLUSIONS
Info: 12 FIXED ATOMS
Info: 2955 RIGID BONDS
Info: 3 RIGID BONDS BETWEEN FIXED ATOMS
Info: 5904 DEGREES OF FREEDOM
Info: 993 HYDROGEN GROUPS
Info: 3 ATOMS IN LARGEST HYDROGEN GROUP
Info: 993 MIGRATION GROUPS
Info: 3 ATOMS IN LARGEST MIGRATION GROUP
Info: 9 HYDROGEN GROUPS WITH ALL ATOMS FIXED
Info: TOTAL MASS = 17856.8 amu
Info: TOTAL CHARGE = 0.000199944 e
Info: MASS DENSITY = 0.666205 g/cm^3
Info: ATOM DENSITY = 0.0665921 atoms/A^3
Info: ADDED 0 IMPLICIT EXCLUSIONS
Info: NONBONDED TABLE R-SQUARED SPACING: 0.0625
Info: NONBONDED TABLE SIZE: 705 POINTS
Info: REMOVING COM VELOCITY 0.129081 -0.201815 0.030918
TCL: Running for 100000 steps
ETITLE: TS BOND ANGLE DIHED IMPRP ELECT VDW BOUNDARY MISC KINETIC TOTAL TEMP POTENTIAL TOTAL3 TEMPAVG PRESSURE GPRESSURE VOLUME PRESSAVG GPRESSAVG
ENERGY: 0 0.0000 0.0000 0.0000 0.0000 -14005.1751 2421.3980 0.0000 0.0000 1749.5948 -9834.1823 298.2507 -11583.7770 -9833.8609 298.2507 541.0787 578.8326 44509.8156 541.0787 578.8326
ENERGY: 100000 0.0000 0.0000 0.0000 0.0000 -14633.4425 2509.6283 0.0000 0.0000 178.3717 -11945.4426 30.4067 -12123.8142 -11944.9343 30.9532 221.3221 267.3983 28860.5446 3.8408 3.7661
TCL: Running 100000 steps at 60 kelvin.
TCL: Setting parameter langevinTemp to 60
TCL: Running for 100000 steps
ETITLE: TS BOND ANGLE DIHED IMPRP ELECT VDW BOUNDARY MISC KINETIC TOTAL TEMP POTENTIAL TOTAL3 TEMPAVG PRESSURE GPRESSURE VOLUME PRESSAVG GPRESSAVG
ENERGY: 100000 0.0000 0.0000 0.0000 0.0000 -14633.4425 2509.6283 0.0000 0.0000 178.2823 -11945.5319 30.3915 -12123.8142 -11945.0455 30.3915 212.0893 267.2190 28860.5446 212.0893 267.2190
ENERGY: 200000 0.0000 0.0000 0.0000 0.0000 -14610.2277 2577.9661 0.0000 0.0000 354.5793 -11677.6823 60.4446 -12032.2617 -11676.7550 59.8532 1249.2573 1276.4891 28859.0562 3.1490 3.1262
TCL: Running 100000 steps at 90 kelvin.
TCL: Setting parameter langevinTemp to 90
TCL: Running for 100000 steps
ETITLE: TS BOND ANGLE DIHED IMPRP ELECT VDW BOUNDARY MISC KINETIC TOTAL TEMP POTENTIAL TOTAL3 TEMPAVG PRESSURE GPRESSURE VOLUME PRESSAVG GPRESSAVG
ENERGY: 200000 0.0000 0.0000 0.0000 0.0000 -14610.2277 2577.9661 0.0000 0.0000 354.4043 -11677.8574 60.4148 -12032.2617 -11677.2446 60.4148 1224.6188 1276.9025 28859.0562 1224.6188 1276.9025
ENERGY: 300000 0.0000 0.0000 0.0000 0.0000 -14278.8366 2339.8666 0.0000 0.0000 541.7831 -11397.1869 92.3569 -11938.9700 -11396.5480 89.7522 -433.9025 -373.2053 29073.2628 3.9983 3.9708
TCL: Running 100000 steps at 120 kelvin.
TCL: Setting parameter langevinTemp to 120
TCL: Running for 100000 steps
ETITLE: TS BOND ANGLE DIHED IMPRP ELECT VDW BOUNDARY MISC KINETIC TOTAL TEMP POTENTIAL TOTAL3 TEMPAVG PRESSURE GPRESSURE VOLUME PRESSAVG GPRESSAVG
ENERGY: 300000 0.0000 0.0000 0.0000 0.0000 -14278.8366 2339.8666 0.0000 0.0000 541.5303 -11397.4397 92.3138 -11938.9700 -11396.2915 92.3138 -428.4797 -373.9653 29073.2628 -428.4797 -373.9653
ENERGY: 400000 0.0000 0.0000 0.0000 0.0000 -14239.1130 2390.9159 0.0000 0.0000 707.4937 -11140.7034 120.6054 -11848.1970 -11138.8005 120.1788 472.2740 532.2132 28643.1998 2.6351 2.7031
TCL: Running 100000 steps at 150 kelvin.
TCL: Setting parameter langevinTemp to 150
TCL: Running for 100000 steps
ETITLE: TS BOND ANGLE DIHED IMPRP ELECT VDW BOUNDARY MISC KINETIC TOTAL TEMP POTENTIAL TOTAL3 TEMPAVG PRESSURE GPRESSURE VOLUME PRESSAVG GPRESSAVG
ENERGY: 400000 0.0000 0.0000 0.0000 0.0000 -14239.1130 2390.9159 0.0000 0.0000 707.1538 -11141.0433 120.5474 -11848.1971 -11139.6554 120.5474 479.3062 531.7191 28643.1998 479.3062 531.7191
ENERGY: 500000 0.0000 0.0000 0.0000 0.0000 -13994.9781 2314.6774 0.0000 0.0000 890.3888 -10789.9119 151.7832 -11680.3007 -10787.1170 149.9212 354.7544 423.7230 28848.8563 3.4767 3.5043
TCL: Running 100000 steps at 180 kelvin.
TCL: Setting parameter langevinTemp to 180
TCL: Running for 100000 steps
ETITLE: TS BOND ANGLE DIHED IMPRP ELECT VDW BOUNDARY MISC KINETIC TOTAL TEMP POTENTIAL TOTAL3 TEMPAVG PRESSURE GPRESSURE VOLUME PRESSAVG GPRESSAVG
ENERGY: 500000 0.0000 0.0000 0.0000 0.0000 -13994.9781 2314.6774 0.0000 0.0000 889.9541 -10790.3466 151.7091 -11680.3007 -10788.7824 151.7091 373.8895 423.9539 28848.8563 373.8895 423.9539
ENERGY: 600000 0.0000 0.0000 0.0000 0.0000 -13332.5357 1982.6515 0.0000 0.0000 1036.5816 -10313.3026 176.7045 -11349.8842 -10311.6810 179.9109 -1319.6782 -1239.1412 29124.4298 3.5021 3.6136
TCL: Running 100000 steps at 210 kelvin.
TCL: Setting parameter langevinTemp to 210
TCL: Running for 100000 steps
ETITLE: TS BOND ANGLE DIHED IMPRP ELECT VDW BOUNDARY MISC KINETIC TOTAL TEMP POTENTIAL TOTAL3 TEMPAVG PRESSURE GPRESSURE VOLUME PRESSAVG GPRESSAVG
ENERGY: 600000 0.0000 0.0000 0.0000 0.0000 -13332.5357 1982.6515 0.0000 0.0000 1036.0685 -10313.8157 176.6170 -11349.8842 -10311.7101 176.6170 -1289.6217 -1239.8243 29124.4298 -1289.6217 -1239.8243
ENERGY: 700000 0.0000 0.0000 0.0000 0.0000 -12742.9377 1929.7455 0.0000 0.0000 1282.1369 -9531.0552 218.5639 -10813.1921 -9530.8567 209.5966 499.0845 628.5172 28778.3581 4.4173 4.4263
TCL: Running 100000 steps at 240 kelvin.
TCL: Setting parameter langevinTemp to 240
TCL: Running for 100000 steps
ETITLE: TS BOND ANGLE DIHED IMPRP ELECT VDW BOUNDARY MISC KINETIC TOTAL TEMP POTENTIAL TOTAL3 TEMPAVG PRESSURE GPRESSURE VOLUME PRESSAVG GPRESSAVG
ENERGY: 700000 0.0000 0.0000 0.0000 0.0000 -12742.9377 1929.7455 0.0000 0.0000 1281.4943 -9531.6978 218.4544 -10813.1921 -9529.5858 218.4544 547.1326 625.7535 28778.3581 547.1326 625.7535
ENERGY: 800000 0.0000 0.0000 0.0000 0.0000 -12034.9649 1599.0886 0.0000 0.0000 1405.8227 -9030.0535 239.6484 -10435.8763 -9026.8762 239.9085 -1051.3392 -968.8434 29296.5226 3.3223 3.2259
TCL: Running 100000 steps at 270 kelvin.
TCL: Setting parameter langevinTemp to 270
TCL: Running for 100000 steps
ETITLE: TS BOND ANGLE DIHED IMPRP ELECT VDW BOUNDARY MISC KINETIC TOTAL TEMP POTENTIAL TOTAL3 TEMPAVG PRESSURE GPRESSURE VOLUME PRESSAVG GPRESSAVG
ENERGY: 800000 0.0000 0.0000 0.0000 0.0000 -12034.9649 1599.0886 0.0000 0.0000 1405.1335 -9030.7428 239.5309 -10435.8763 -9028.1739 239.5309 -1057.9225 -970.6575 29296.5226 -1057.9225 -970.6575
ENERGY: 900000 0.0000 0.0000 0.0000 0.0000 -11530.0641 1555.8591 0.0000 0.0000 1611.7874 -8362.4176 274.7589 -9974.2050 -8360.7379 269.9699 -156.8463 -74.1674 30181.1699 4.4764 4.1545
TCL: Running 1000000 steps at 300 kelvin.
TCL: Setting parameter langevinTemp to 300
TCL: Running for 1000000 steps
ETITLE: TS BOND ANGLE DIHED IMPRP ELECT VDW BOUNDARY MISC KINETIC TOTAL TEMP POTENTIAL TOTAL3 TEMPAVG PRESSURE GPRESSURE VOLUME PRESSAVG GPRESSAVG
ENERGY: 900000 0.0000 0.0000 0.0000 0.0000 -11530.0641 1555.8591 0.0000 0.0000 1610.9954 -8363.2096 274.6239 -9974.2050 -8360.5847 274.6239 -149.2126 -76.8230 30181.1699 -149.2126 -76.8230
ENERGY: 1100000 0.0000 0.0000 0.0000 0.0000 -11167.6713 1500.3840 0.0000 0.0000 1744.9331 -7922.3542 297.4561 -9667.2873 -7921.9482 299.9832 704.7332 759.5414 29803.4003 4.6696 4.3516
ENERGY: 1300000 0.0000 0.0000 0.0000 0.0000 -11027.6137 1370.8939 0.0000 0.0000 1740.2658 -7916.4539 296.6604 -9656.7197 -7913.0313 299.9040 -555.2165 -567.8818 30645.3811 3.7140 3.5803
ENERGY: 1500000 0.0000 0.0000 0.0000 0.0000 -11024.7945 1396.7720 0.0000 0.0000 1763.5823 -7864.4403 300.6352 -9628.0226 -7861.4807 299.9949 -401.9347 -347.8468 30535.0803 3.1902 3.2225
ENERGY: 1700000 0.0000 0.0000 0.0000 0.0000 -11144.2694 1507.3163 0.0000 0.0000 1839.1804 -7797.7727 313.5222 -9636.9530 -7796.2903 300.6897 405.7588 497.0377 30634.6936 3.5444 3.3877
ENERGY: 1900000 0.0000 0.0000 0.0000 0.0000 -11035.4443 1458.7745 0.0000 0.0000 1720.5506 -7856.1192 293.2996 -9576.6698 -7852.8341 300.8665 317.1229 411.9582 30136.2445 3.4313 3.4886
TCL: Exiting due to exit command.
