Info: SIMULATION PARAMETERS:
Info: TIMESTEP               2
Info: NUMBER OF STEPS        0
Info: STEPS PER CYCLE        10
Info: PERIODIC CELL BASIS 1  36.592 0 0
Info: PERIODIC CELL BASIS 2  0 34.26 0
Info: PERIODIC CELL BASIS 3  0 0 34.954
Info: PERIODIC CELL CENTER   0 0 0
Info: WRAPPING WATERS AROUND PERIODIC BOUNDARIES ON OUTPUT.
Info: WRAPPING ALL CLUSTERS AROUND PERIODIC BOUNDARIES ON OUTPUT.
Info: FIRST LDB TIMESTEP     50
Info: LAST LDB TIMESTEP     -1
Info: HOM BACKGROUND SCALING 1
Info: PME BACKGROUND SCALING 1
Info: MIN ATOMS PER PATCH    40
Info: EMPTY PATCH LOAD       40 ATOMS
Info: INITIAL TEMPERATURE    300
Info: CENTER OF MASS MOVING INITIALLY? NO
Info: DIELECTRIC             1
Info: EXCLUDE                SCALED ONE-FOUR
Info: 1-4 ELECTROSTATICS SCALED BY 0.833333
Info: MODIFIED 1-4 VDW PARAMETERS WILL BE USED
Info: DCD FILENAME           mobley_8118832_equil.dcd
Info: DCD FREQUENCY          100000
Info: DCD FIRST STEP         100000
Info: DCD FILE WILL CONTAIN UNIT CELL DATA
Info: XST FILENAME           mobley_8118832_equil.xst
Info: XST FREQUENCY          100000
Info: NO VELOCITY DCD OUTPUT
Info: NO FORCE DCD OUTPUT
Info: OUTPUT FILENAME        mobley_8118832_equil
Info: BINARY OUTPUT FILES WILL BE USED
Info: RESTART FILENAME       mobley_8118832_equil.restart
Info: RESTART FREQUENCY      100000
Info: BINARY RESTART FILES WILL BE USED
Info: CUTOFF                 9
Info: PAIRLIST DISTANCE      11
Info: PAIRLIST SHRINK RATE   0.01
Info: PAIRLIST GROW RATE     0.01
Info: PAIRLIST TRIGGER       0.3
Info: PAIRLISTS PER CYCLE    2
Info: PAIRLISTS ENABLED
Info: MARGIN                 8
Info: HYDROGEN GROUP CUTOFF  2.5
Info: PATCH DIMENSION        21.5
Info: ENERGY OUTPUT STEPS    100000
Info: ENERGY EVALUATION STEPS    100000
Info: OUTPUT ENERGY PRECISION 4
Info: CROSSTERM ENERGY INCLUDED IN DIHEDRAL
Info: TIMING OUTPUT STEPS    1000000
Info: PRESSURE OUTPUT STEPS  100000
Info: FIXED ATOMS ACTIVE
Info: LANGEVIN DYNAMICS ACTIVE
Info: LANGEVIN TEMPERATURE   30
Info: LANGEVIN USING BBK INTEGRATOR
Info: LANGEVIN DAMPING COEFFICIENT IS 1 INVERSE PS
Info: LANGEVIN DYNAMICS APPLIED TO HYDROGENS
Info: LANGEVIN PISTON PRESSURE CONTROL ACTIVE
Info:        TARGET PRESSURE IS 1.01325 BAR
Info:     OSCILLATION PERIOD IS 50 FS
Info:             DECAY TIME IS 25 FS
Info:     PISTON TEMPERATURE IS 300 K
Info:       PRESSURE CONTROL IS GROUP-BASED
Info:    INITIAL STRAIN RATE IS 0 0 0
Info:       CELL FLUCTUATION IS ISOTROPIC
Info: PARTICLE MESH EWALD (PME) ACTIVE
Info: PME TOLERANCE               1e-06
Info: PME EWALD COEFFICIENT       0.348832
Info: PME INTERPOLATION ORDER     4
Info: PME GRID DIMENSIONS         40 36 36
Info: PME MAXIMUM GRID SPACING    1
Info: FULL ELECTROSTATIC EVALUATION FREQUENCY      2
Info: USING VERLET I (r-RESPA) MTS SCHEME.
Info: C1 SPLITTING OF LONG RANGE ELECTROSTATICS
Info: PLACING ATOMS IN PATCHES BY HYDROGEN GROUPS
Info: RIGID BONDS TO HYDROGEN : ALL
Info:         ERROR TOLERANCE : 1e-08
Info:          MAX ITERATIONS : 100
Info: RIGID WATER USING SETTLE ALGORITHM
Info: RANDOM NUMBER SEED     1743900674
Info: USE HYDROGEN BONDS?    NO
Info: Using AMBER format force field!
Info: AMBER PARM FILE        mobley_8118832.prmtop
Info: COORDINATE PDB         mobley_8118832.pdb
Info: Exclusions will be read from PARM file!
Info: SCNB (VDW SCALING)     2
Info: USING ARITHMETIC MEAN TO COMBINE L-J SIGMA PARAMETERS
Info: BINARY COORDINATES     mobley_8118832_min.coor
Info: SUMMARY OF PARAMETERS:
Info: 8 BONDS
Info: 9 ANGLES
Info:   9 HARMONIC
Info:   0 COSINE-BASED
Info: 4 DIHEDRAL
Info: 0 IMPROPER
Info: 0 CROSSTERM
Info: 0 VDW
Info: 28 VDW_PAIRS
Info: 0 NBTHOLE_PAIRS
Info: STRUCTURE SUMMARY:
Info: 2911 ATOMS
Info: 2910 BONDS
Info: 13 ANGLES
Info: 15 DIHEDRALS
Info: 0 IMPROPERS
Info: 0 CROSSTERMS
Info: 2936 EXCLUSIONS
Info: 10 FIXED ATOMS
Info: 2907 RIGID BONDS
Info: 6 RIGID BONDS BETWEEN FIXED ATOMS
Info: 5802 DEGREES OF FREEDOM
Info: 971 HYDROGEN GROUPS
Info: 3 ATOMS IN LARGEST HYDROGEN GROUP
Info: 971 MIGRATION GROUPS
Info: 3 ATOMS IN LARGEST MIGRATION GROUP
Info: 4 HYDROGEN GROUPS WITH ALL ATOMS FIXED
Info: TOTAL MASS = 17479.6 amu
Info: TOTAL CHARGE = -0.000200007 e
Info: MASS DENSITY = 0.662398 g/cm^3
Info: ATOM DENSITY = 0.0664312 atoms/A^3
Info: ADDED 0 IMPLICIT EXCLUSIONS
Info: NONBONDED TABLE R-SQUARED SPACING: 0.0625
Info: NONBONDED TABLE SIZE: 705 POINTS
Info: REMOVING COM VELOCITY -0.0147027 -0.0497383 0.0721587
TCL: Running for 100000 steps
ETITLE: TS BOND ANGLE DIHED IMPRP ELECT VDW BOUNDARY MISC KINETIC TOTAL TEMP POTENTIAL TOTAL3 TEMPAVG PRESSURE GPRESSURE VOLUME PRESSAVG GPRESSAVG
ENERGY: 0 0.0000 0.0000 0.0000 0.0000 -13481.5883 2318.3966 0.0000 0.0000 1734.7485 -9428.4433 300.9187 -11163.1917 -9428.0956 300.9187 183.0803 206.2980 43819.7997 183.0803 206.2980
ENERGY: 100000 0.0000 0.0000 0.0000 0.0000 -14053.1588 2464.0557 0.0000 0.0000 169.9487 -11419.1544 29.4802 -11589.1031 -11418.5898 30.8831 254.2495 318.5224 28704.8300 3.5549 3.5557
TCL: Running 100000 steps at 60 kelvin.
TCL: Setting parameter langevinTemp to 60
TCL: Running for 100000 steps
ETITLE: TS BOND ANGLE DIHED IMPRP ELECT VDW BOUNDARY MISC KINETIC TOTAL TEMP POTENTIAL TOTAL3 TEMPAVG PRESSURE GPRESSURE VOLUME PRESSAVG GPRESSAVG
ENERGY: 100000 0.0000 0.0000 0.0000 0.0000 -14053.1588 2464.0557 0.0000 0.0000 169.8609 -11419.2422 29.4650 -11589.1031 -11418.8061 29.4650 257.5428 318.2636 28704.8300 257.5428 318.2636
ENERGY: 200000 0.0000 0.0000 0.0000 0.0000 -13951.4820 2350.1273 0.0000 0.0000 342.6063 -11258.7485 59.4303 -11601.3548 -11257.8520 59.9228 -443.8698 -382.3805 27990.7727 4.0786 4.1300
TCL: Running 100000 steps at 90 kelvin.
TCL: Setting parameter langevinTemp to 90
TCL: Running for 100000 steps
ETITLE: TS BOND ANGLE DIHED IMPRP ELECT VDW BOUNDARY MISC KINETIC TOTAL TEMP POTENTIAL TOTAL3 TEMPAVG PRESSURE GPRESSURE VOLUME PRESSAVG GPRESSAVG
ENERGY: 200000 0.0000 0.0000 0.0000 0.0000 -13951.4820 2350.1273 0.0000 0.0000 342.4407 -11258.9141 59.4016 -11601.3548 -11258.1884 59.4016 -448.2512 -382.6022 27990.7727 -448.2512 -382.6022
ENERGY: 300000 0.0000 0.0000 0.0000 0.0000 -13954.7470 2472.9575 0.0000 0.0000 505.0951 -10976.6943 87.6165 -11481.7895 -10976.7500 90.0996 923.8844 977.6878 28228.1578 3.7255 3.6642
TCL: Running 100000 steps at 120 kelvin.
TCL: Setting parameter langevinTemp to 120
TCL: Running for 100000 steps
ETITLE: TS BOND ANGLE DIHED IMPRP ELECT VDW BOUNDARY MISC KINETIC TOTAL TEMP POTENTIAL TOTAL3 TEMPAVG PRESSURE GPRESSURE VOLUME PRESSAVG GPRESSAVG
ENERGY: 300000 0.0000 0.0000 0.0000 0.0000 -13954.7470 2472.9575 0.0000 0.0000 504.8272 -10976.9623 87.5700 -11481.7895 -10976.0372 87.5700 925.1661 977.2733 28228.1578 925.1661 977.2733
ENERGY: 400000 0.0000 0.0000 0.0000 0.0000 -13619.6056 2270.1817 0.0000 0.0000 669.7434 -10679.6805 116.1773 -11349.4239 -10677.8313 119.6923 -288.0440 -273.1759 28496.9938 4.6622 4.7716
TCL: Running 100000 steps at 150 kelvin.
TCL: Setting parameter langevinTemp to 150
TCL: Running for 100000 steps
ETITLE: TS BOND ANGLE DIHED IMPRP ELECT VDW BOUNDARY MISC KINETIC TOTAL TEMP POTENTIAL TOTAL3 TEMPAVG PRESSURE GPRESSURE VOLUME PRESSAVG GPRESSAVG
ENERGY: 400000 0.0000 0.0000 0.0000 0.0000 -13619.6056 2270.1817 0.0000 0.0000 669.3890 -10680.0349 116.1158 -11349.4239 -10678.5520 116.1158 -323.9521 -273.1267 28496.9938 -323.9521 -273.1267
ENERGY: 500000 0.0000 0.0000 0.0000 0.0000 -13475.1083 2296.1655 0.0000 0.0000 863.0561 -10315.8866 149.7103 -11178.9427 -10312.5355 150.1006 459.5663 564.6750 28441.4453 4.6310 4.7433
TCL: Running 100000 steps at 180 kelvin.
TCL: Setting parameter langevinTemp to 180
TCL: Running for 100000 steps
ETITLE: TS BOND ANGLE DIHED IMPRP ELECT VDW BOUNDARY MISC KINETIC TOTAL TEMP POTENTIAL TOTAL3 TEMPAVG PRESSURE GPRESSURE VOLUME PRESSAVG GPRESSAVG
ENERGY: 500000 0.0000 0.0000 0.0000 0.0000 -13475.1083 2296.1655 0.0000 0.0000 862.6037 -10316.3390 149.6318 -11178.9427 -10314.7069 149.6318 500.8365 565.8292 28441.4453 500.8365 565.8292
ENERGY: 600000 0.0000 0.0000 0.0000 0.0000 -12848.3132 1947.5985 0.0000 0.0000 1041.6339 -9859.0807 180.6874 -10900.7146 -9856.8852 179.9934 -1481.2551 -1405.1539 28826.0374 3.4728 3.5457
TCL: Running 100000 steps at 210 kelvin.
TCL: Setting parameter langevinTemp to 210
TCL: Running for 100000 steps
ETITLE: TS BOND ANGLE DIHED IMPRP ELECT VDW BOUNDARY MISC KINETIC TOTAL TEMP POTENTIAL TOTAL3 TEMPAVG PRESSURE GPRESSURE VOLUME PRESSAVG GPRESSAVG
ENERGY: 600000 0.0000 0.0000 0.0000 0.0000 -12848.3132 1947.5985 0.0000 0.0000 1041.0990 -9859.6156 180.5946 -10900.7146 -9857.9354 180.5946 -1471.0590 -1405.4263 28826.0374 -1471.0590 -1405.4263
ENERGY: 700000 0.0000 0.0000 0.0000 0.0000 -12273.6737 1802.1687 0.0000 0.0000 1213.3746 -9258.1304 210.4784 -10471.5050 -9254.8903 210.2160 -396.3747 -369.9292 27839.7315 2.5575 2.4651
TCL: Running 100000 steps at 240 kelvin.
TCL: Setting parameter langevinTemp to 240
TCL: Running for 100000 steps
ETITLE: TS BOND ANGLE DIHED IMPRP ELECT VDW BOUNDARY MISC KINETIC TOTAL TEMP POTENTIAL TOTAL3 TEMPAVG PRESSURE GPRESSURE VOLUME PRESSAVG GPRESSAVG
ENERGY: 700000 0.0000 0.0000 0.0000 0.0000 -12273.6737 1802.1687 0.0000 0.0000 1212.7652 -9258.7398 210.3727 -10471.5050 -9255.8456 210.3727 -449.9185 -371.4463 27839.7315 -449.9185 -371.4463
ENERGY: 800000 0.0000 0.0000 0.0000 0.0000 -11764.1717 1775.2307 0.0000 0.0000 1398.8109 -8590.1301 242.6452 -9988.9410 -8587.6296 240.1353 560.9350 618.2352 28782.0509 2.5221 2.5134
TCL: Running 100000 steps at 270 kelvin.
TCL: Setting parameter langevinTemp to 270
TCL: Running for 100000 steps
ETITLE: TS BOND ANGLE DIHED IMPRP ELECT VDW BOUNDARY MISC KINETIC TOTAL TEMP POTENTIAL TOTAL3 TEMPAVG PRESSURE GPRESSURE VOLUME PRESSAVG GPRESSAVG
ENERGY: 800000 0.0000 0.0000 0.0000 0.0000 -11764.1717 1775.2307 0.0000 0.0000 1398.1346 -8590.8064 242.5279 -9988.9410 -8588.8507 242.5279 536.9896 618.3120 28782.0509 536.9896 618.3120
ENERGY: 900000 0.0000 0.0000 0.0000 0.0000 -11131.3111 1545.3851 0.0000 0.0000 1520.3054 -8065.6206 263.7203 -9585.9260 -8062.2721 270.0941 -171.6085 -61.6328 29084.0512 3.3621 3.4011
TCL: Running 1000000 steps at 300 kelvin.
TCL: Setting parameter langevinTemp to 300
TCL: Running for 1000000 steps
ETITLE: TS BOND ANGLE DIHED IMPRP ELECT VDW BOUNDARY MISC KINETIC TOTAL TEMP POTENTIAL TOTAL3 TEMPAVG PRESSURE GPRESSURE VOLUME PRESSAVG GPRESSAVG
ENERGY: 900000 0.0000 0.0000 0.0000 0.0000 -11131.3111 1545.3851 0.0000 0.0000 1519.5372 -8066.3888 263.5870 -9585.9260 -8063.5014 263.5870 -146.9749 -62.2790 29084.0512 -146.9749 -62.2790
ENERGY: 1100000 0.0000 0.0000 0.0000 0.0000 -10541.3310 1430.0651 0.0000 0.0000 1651.9224 -7459.3436 286.5512 -9111.2659 -7454.9839 300.5040 -10.6969 114.7044 30289.3270 2.6432 2.4193
ENERGY: 1300000 0.0000 0.0000 0.0000 0.0000 -10567.9459 1377.4581 0.0000 0.0000 1722.8877 -7467.6000 298.8613 -9190.4877 -7464.6561 300.5487 -456.3010 -375.0770 30208.8594 3.0104 3.0515
ENERGY: 1500000 0.0000 0.0000 0.0000 0.0000 -10659.2239 1453.4471 0.0000 0.0000 1748.7080 -7457.0688 303.3402 -9205.7768 -7453.7285 299.8365 186.5934 275.8481 29864.1340 3.5820 3.7258
ENERGY: 1700000 0.0000 0.0000 0.0000 0.0000 -10576.7784 1443.0613 0.0000 0.0000 1706.3225 -7427.3945 295.9878 -9133.7171 -7424.4219 299.5069 280.4451 414.5755 30041.5529 4.1305 4.0900
ENERGY: 1900000 0.0000 0.0000 0.0000 0.0000 -10532.8730 1359.7590 0.0000 0.0000 1708.6430 -7464.4710 296.3903 -9173.1140 -7461.6584 300.3898 -679.0142 -592.7374 30513.1712 2.9324 3.1119
TCL: Exiting due to exit command.
