Info: SIMULATION PARAMETERS:
Info: TIMESTEP               2
Info: NUMBER OF STEPS        0
Info: STEPS PER CYCLE        10
Info: PERIODIC CELL BASIS 1  37.435 0 0
Info: PERIODIC CELL BASIS 2  0 35.779 0
Info: PERIODIC CELL BASIS 3  0 0 31.855
Info: PERIODIC CELL CENTER   0 0 0
Info: WRAPPING WATERS AROUND PERIODIC BOUNDARIES ON OUTPUT.
Info: WRAPPING ALL CLUSTERS AROUND PERIODIC BOUNDARIES ON OUTPUT.
Info: FIRST LDB TIMESTEP     50
Info: LAST LDB TIMESTEP     -1
Info: HOM BACKGROUND SCALING 1
Info: PME BACKGROUND SCALING 1
Info: MIN ATOMS PER PATCH    40
Info: EMPTY PATCH LOAD       40 ATOMS
Info: INITIAL TEMPERATURE    300
Info: CENTER OF MASS MOVING INITIALLY? NO
Info: DIELECTRIC             1
Info: EXCLUDE                SCALED ONE-FOUR
Info: 1-4 ELECTROSTATICS SCALED BY 0.833333
Info: MODIFIED 1-4 VDW PARAMETERS WILL BE USED
Info: DCD FILENAME           mobley_2457863_equil.dcd
Info: DCD FREQUENCY          100000
Info: DCD FIRST STEP         100000
Info: DCD FILE WILL CONTAIN UNIT CELL DATA
Info: XST FILENAME           mobley_2457863_equil.xst
Info: XST FREQUENCY          100000
Info: NO VELOCITY DCD OUTPUT
Info: NO FORCE DCD OUTPUT
Info: OUTPUT FILENAME        mobley_2457863_equil
Info: BINARY OUTPUT FILES WILL BE USED
Info: RESTART FILENAME       mobley_2457863_equil.restart
Info: RESTART FREQUENCY      100000
Info: BINARY RESTART FILES WILL BE USED
Info: CUTOFF                 9
Info: PAIRLIST DISTANCE      11
Info: PAIRLIST SHRINK RATE   0.01
Info: PAIRLIST GROW RATE     0.01
Info: PAIRLIST TRIGGER       0.3
Info: PAIRLISTS PER CYCLE    2
Info: PAIRLISTS ENABLED
Info: MARGIN                 8
Info: HYDROGEN GROUP CUTOFF  2.5
Info: PATCH DIMENSION        21.5
Info: ENERGY OUTPUT STEPS    100000
Info: ENERGY EVALUATION STEPS    100000
Info: OUTPUT ENERGY PRECISION 4
Info: CROSSTERM ENERGY INCLUDED IN DIHEDRAL
Info: TIMING OUTPUT STEPS    1000000
Info: PRESSURE OUTPUT STEPS  100000
Info: FIXED ATOMS ACTIVE
Info: LANGEVIN DYNAMICS ACTIVE
Info: LANGEVIN TEMPERATURE   30
Info: LANGEVIN USING BBK INTEGRATOR
Info: LANGEVIN DAMPING COEFFICIENT IS 1 INVERSE PS
Info: LANGEVIN DYNAMICS APPLIED TO HYDROGENS
Info: LANGEVIN PISTON PRESSURE CONTROL ACTIVE
Info:        TARGET PRESSURE IS 1.01325 BAR
Info:     OSCILLATION PERIOD IS 50 FS
Info:             DECAY TIME IS 25 FS
Info:     PISTON TEMPERATURE IS 300 K
Info:       PRESSURE CONTROL IS GROUP-BASED
Info:    INITIAL STRAIN RATE IS 0 0 0
Info:       CELL FLUCTUATION IS ISOTROPIC
Info: PARTICLE MESH EWALD (PME) ACTIVE
Info: PME TOLERANCE               1e-06
Info: PME EWALD COEFFICIENT       0.348832
Info: PME INTERPOLATION ORDER     4
Info: PME GRID DIMENSIONS         40 36 32
Info: PME MAXIMUM GRID SPACING    1
Info: FULL ELECTROSTATIC EVALUATION FREQUENCY      2
Info: USING VERLET I (r-RESPA) MTS SCHEME.
Info: C1 SPLITTING OF LONG RANGE ELECTROSTATICS
Info: PLACING ATOMS IN PATCHES BY HYDROGEN GROUPS
Info: RIGID BONDS TO HYDROGEN : ALL
Info:         ERROR TOLERANCE : 1e-08
Info:          MAX ITERATIONS : 100
Info: RIGID WATER USING SETTLE ALGORITHM
Info: RANDOM NUMBER SEED     1744085654
Info: USE HYDROGEN BONDS?    NO
Info: Using AMBER format force field!
Info: AMBER PARM FILE        mobley_2457863.prmtop
Info: COORDINATE PDB         mobley_2457863.pdb
Info: Exclusions will be read from PARM file!
Info: SCNB (VDW SCALING)     2
Info: USING ARITHMETIC MEAN TO COMBINE L-J SIGMA PARAMETERS
Info: BINARY COORDINATES     mobley_2457863_min.coor
Info: SUMMARY OF PARAMETERS:
Info: 9 BONDS
Info: 8 ANGLES
Info:   8 HARMONIC
Info:   0 COSINE-BASED
Info: 4 DIHEDRAL
Info: 0 IMPROPER
Info: 0 CROSSTERM
Info: 0 VDW
Info: 36 VDW_PAIRS
Info: 0 NBTHOLE_PAIRS
Info: STRUCTURE SUMMARY:
Info: 2948 ATOMS
Info: 2948 BONDS
Info: 26 ANGLES
Info: 37 DIHEDRALS
Info: 0 IMPROPERS
Info: 0 CROSSTERMS
Info: 3002 EXCLUSIONS
Info: 17 FIXED ATOMS
Info: 2939 RIGID BONDS
Info: 8 RIGID BONDS BETWEEN FIXED ATOMS
Info: 5862 DEGREES OF FREEDOM
Info: 986 HYDROGEN GROUPS
Info: 4 ATOMS IN LARGEST HYDROGEN GROUP
Info: 986 MIGRATION GROUPS
Info: 4 ATOMS IN LARGEST MIGRATION GROUP
Info: 9 HYDROGEN GROUPS WITH ALL ATOMS FIXED
Info: TOTAL MASS = 17725.8 amu
Info: TOTAL CHARGE = 0.000200033 e
Info: MASS DENSITY = 0.689891 g/cm^3
Info: ATOM DENSITY = 0.0690946 atoms/A^3
Info: ADDED 0 IMPLICIT EXCLUSIONS
Info: NONBONDED TABLE R-SQUARED SPACING: 0.0625
Info: NONBONDED TABLE SIZE: 705 POINTS
Info: REMOVING COM VELOCITY -0.256352 -0.0581217 -0.144857
TCL: Running for 100000 steps
ETITLE: TS BOND ANGLE DIHED IMPRP ELECT VDW BOUNDARY MISC KINETIC TOTAL TEMP POTENTIAL TOTAL3 TEMPAVG PRESSURE GPRESSURE VOLUME PRESSAVG GPRESSAVG
ENERGY: 0 0.0000 0.0000 0.0000 0.0000 -13657.0608 2338.3876 0.0000 0.0000 1763.5001 -9555.1731 302.7750 -11318.6732 -9554.8284 302.7750 1.3391 37.0677 42666.1686 1.3391 37.0677
ENERGY: 100000 0.0000 0.0000 0.0000 0.0000 -14224.8116 2409.2212 0.0000 0.0000 174.0284 -11641.5620 29.8789 -11815.5904 -11641.0179 30.8306 -589.7319 -533.5765 28895.3673 3.8280 3.7900
TCL: Running 100000 steps at 60 kelvin.
TCL: Setting parameter langevinTemp to 60
TCL: Running for 100000 steps
ETITLE: TS BOND ANGLE DIHED IMPRP ELECT VDW BOUNDARY MISC KINETIC TOTAL TEMP POTENTIAL TOTAL3 TEMPAVG PRESSURE GPRESSURE VOLUME PRESSAVG GPRESSAVG
ENERGY: 100000 0.0000 0.0000 0.0000 0.0000 -14224.8116 2409.2212 0.0000 0.0000 173.9424 -11641.6480 29.8641 -11815.5904 -11641.2950 29.8641 -577.2443 -533.4178 28895.3673 -577.2443 -533.4178
ENERGY: 200000 0.0000 0.0000 0.0000 0.0000 -14165.5734 2482.4401 0.0000 0.0000 352.4686 -11330.6647 60.5153 -11683.1333 -11329.9830 59.9142 508.9753 556.0725 28993.3269 4.1919 4.2593
TCL: Running 100000 steps at 90 kelvin.
TCL: Setting parameter langevinTemp to 90
TCL: Running for 100000 steps
ETITLE: TS BOND ANGLE DIHED IMPRP ELECT VDW BOUNDARY MISC KINETIC TOTAL TEMP POTENTIAL TOTAL3 TEMPAVG PRESSURE GPRESSURE VOLUME PRESSAVG GPRESSAVG
ENERGY: 200000 0.0000 0.0000 0.0000 0.0000 -14165.5734 2482.4401 0.0000 0.0000 352.2840 -11330.8492 60.4836 -11683.1333 -11330.1240 60.4836 508.8201 555.8996 28993.3269 508.8201 555.8996
ENERGY: 300000 0.0000 0.0000 0.0000 0.0000 -14107.5941 2523.7849 0.0000 0.0000 527.8463 -11055.9629 90.6258 -11583.8092 -11054.3194 90.0837 1387.4891 1452.3281 28571.7763 4.4766 4.4632
TCL: Running 100000 steps at 120 kelvin.
TCL: Setting parameter langevinTemp to 120
TCL: Running for 100000 steps
ETITLE: TS BOND ANGLE DIHED IMPRP ELECT VDW BOUNDARY MISC KINETIC TOTAL TEMP POTENTIAL TOTAL3 TEMPAVG PRESSURE GPRESSURE VOLUME PRESSAVG GPRESSAVG
ENERGY: 300000 0.0000 0.0000 0.0000 0.0000 -14107.5941 2523.7849 0.0000 0.0000 527.5829 -11056.2263 90.5806 -11583.8092 -11055.4146 90.5806 1390.8903 1452.8724 28571.7763 1390.8903 1452.8724
ENERGY: 400000 0.0000 0.0000 0.0000 0.0000 -13788.4828 2288.7147 0.0000 0.0000 683.5051 -10816.2630 117.3509 -11499.7681 -10814.7747 120.3071 -239.7020 -170.5821 28644.3612 3.0796 3.0158
TCL: Running 100000 steps at 150 kelvin.
TCL: Setting parameter langevinTemp to 150
TCL: Running for 100000 steps
ETITLE: TS BOND ANGLE DIHED IMPRP ELECT VDW BOUNDARY MISC KINETIC TOTAL TEMP POTENTIAL TOTAL3 TEMPAVG PRESSURE GPRESSURE VOLUME PRESSAVG GPRESSAVG
ENERGY: 400000 0.0000 0.0000 0.0000 0.0000 -13788.4828 2288.7147 0.0000 0.0000 683.1458 -10816.6223 117.2892 -11499.7681 -10815.2747 117.2892 -216.4711 -170.9694 28644.3612 -216.4711 -170.9694
ENERGY: 500000 0.0000 0.0000 0.0000 0.0000 -13422.1303 2094.0751 0.0000 0.0000 845.5596 -10482.4956 145.1740 -11328.0552 -10480.2580 149.9650 -1379.2583 -1338.2724 29144.1185 3.0935 3.0210
TCL: Running 100000 steps at 180 kelvin.
TCL: Setting parameter langevinTemp to 180
TCL: Running for 100000 steps
ETITLE: TS BOND ANGLE DIHED IMPRP ELECT VDW BOUNDARY MISC KINETIC TOTAL TEMP POTENTIAL TOTAL3 TEMPAVG PRESSURE GPRESSURE VOLUME PRESSAVG GPRESSAVG
ENERGY: 500000 0.0000 0.0000 0.0000 0.0000 -13422.1303 2094.0751 0.0000 0.0000 845.1135 -10482.9417 145.0974 -11328.0552 -10480.9927 145.0974 -1390.8001 -1337.5895 29144.1185 -1390.8001 -1337.5895
ENERGY: 600000 0.0000 0.0000 0.0000 0.0000 -13180.9053 2195.3083 0.0000 0.0000 1080.3779 -9905.2190 185.4899 -10985.5970 -9903.2294 180.0805 960.9918 1053.1391 28619.8201 4.2819 4.1743
TCL: Running 100000 steps at 210 kelvin.
TCL: Setting parameter langevinTemp to 210
TCL: Running for 100000 steps
ETITLE: TS BOND ANGLE DIHED IMPRP ELECT VDW BOUNDARY MISC KINETIC TOTAL TEMP POTENTIAL TOTAL3 TEMPAVG PRESSURE GPRESSURE VOLUME PRESSAVG GPRESSAVG
ENERGY: 600000 0.0000 0.0000 0.0000 0.0000 -13180.9053 2195.3083 0.0000 0.0000 1079.8653 -9905.7317 185.4019 -10985.5970 -9903.7554 185.4019 991.8808 1052.6415 28619.8201 991.8808 1052.6415
ENERGY: 700000 0.0000 0.0000 0.0000 0.0000 -12320.4395 1819.8567 0.0000 0.0000 1203.0723 -9297.5105 206.5553 -10500.5828 -9294.2497 210.0363 -584.7707 -501.9032 29225.5313 3.5705 3.3695
TCL: Running 100000 steps at 240 kelvin.
TCL: Setting parameter langevinTemp to 240
TCL: Running for 100000 steps
ETITLE: TS BOND ANGLE DIHED IMPRP ELECT VDW BOUNDARY MISC KINETIC TOTAL TEMP POTENTIAL TOTAL3 TEMPAVG PRESSURE GPRESSURE VOLUME PRESSAVG GPRESSAVG
ENERGY: 700000 0.0000 0.0000 0.0000 0.0000 -12320.4395 1819.8567 0.0000 0.0000 1202.4927 -9298.0901 206.4558 -10500.5828 -9296.3000 206.4558 -574.1772 -499.6436 29225.5313 -574.1772 -499.6436
ENERGY: 800000 0.0000 0.0000 0.0000 0.0000 -11834.2063 1699.5979 0.0000 0.0000 1422.0156 -8712.5929 244.1456 -10134.6085 -8711.6983 239.7381 -56.7710 -37.1818 28970.8609 2.0421 1.9892
TCL: Running 100000 steps at 270 kelvin.
TCL: Setting parameter langevinTemp to 270
TCL: Running for 100000 steps
ETITLE: TS BOND ANGLE DIHED IMPRP ELECT VDW BOUNDARY MISC KINETIC TOTAL TEMP POTENTIAL TOTAL3 TEMPAVG PRESSURE GPRESSURE VOLUME PRESSAVG GPRESSAVG
ENERGY: 800000 0.0000 0.0000 0.0000 0.0000 -11834.2063 1699.5979 0.0000 0.0000 1421.2981 -8713.3103 244.0224 -10134.6085 -8710.9517 244.0224 -128.2857 -39.0572 28970.8609 -128.2857 -39.0572
ENERGY: 900000 0.0000 0.0000 0.0000 0.0000 -11169.1996 1465.2290 0.0000 0.0000 1558.4482 -8145.5223 267.5697 -9703.9705 -8143.1790 269.9893 -908.0882 -825.2690 29825.9768 3.2858 3.1757
TCL: Running 1000000 steps at 300 kelvin.
TCL: Setting parameter langevinTemp to 300
TCL: Running for 1000000 steps
ETITLE: TS BOND ANGLE DIHED IMPRP ELECT VDW BOUNDARY MISC KINETIC TOTAL TEMP POTENTIAL TOTAL3 TEMPAVG PRESSURE GPRESSURE VOLUME PRESSAVG GPRESSAVG
ENERGY: 900000 0.0000 0.0000 0.0000 0.0000 -11169.1996 1465.2290 0.0000 0.0000 1557.6649 -8146.3056 267.4352 -9703.9705 -8143.0448 267.4352 -902.6009 -826.4386 29825.9768 -902.6009 -826.4386
ENERGY: 1100000 0.0000 0.0000 0.0000 0.0000 -10643.1395 1381.4979 0.0000 0.0000 1721.5118 -7540.1298 295.5661 -9261.6416 -7537.8709 300.2871 -265.9505 -166.3288 30242.9038 2.5742 2.4415
ENERGY: 1300000 0.0000 0.0000 0.0000 0.0000 -10806.1827 1477.4573 0.0000 0.0000 1732.3842 -7596.3412 297.4327 -9328.7254 -7596.2164 300.7307 208.1983 328.3183 30407.9639 4.2068 4.2352
ENERGY: 1500000 0.0000 0.0000 0.0000 0.0000 -10591.5444 1311.6937 0.0000 0.0000 1745.7433 -7534.1073 299.7264 -9279.8506 -7529.0024 299.7535 -907.6877 -800.2602 30456.5912 4.1323 4.2255
ENERGY: 1700000 0.0000 0.0000 0.0000 0.0000 -10669.6424 1349.1615 0.0000 0.0000 1745.7712 -7574.7097 299.7312 -9320.4808 -7573.4252 299.8200 -642.1206 -576.6808 30428.4290 2.3600 2.2196
ENERGY: 1900000 0.0000 0.0000 0.0000 0.0000 -10582.1820 1348.1501 0.0000 0.0000 1714.9862 -7519.0457 294.4457 -9234.0319 -7517.7675 300.8153 -548.6528 -438.4915 30474.7755 3.5058 3.6088
TCL: Exiting due to exit command.
