Info: SIMULATION PARAMETERS:
Info: TIMESTEP               2
Info: NUMBER OF STEPS        0
Info: STEPS PER CYCLE        10
Info: PERIODIC CELL BASIS 1  37.133 0 0
Info: PERIODIC CELL BASIS 2  0 36.762 0
Info: PERIODIC CELL BASIS 3  0 0 31.855
Info: PERIODIC CELL CENTER   0 0 0
Info: WRAPPING WATERS AROUND PERIODIC BOUNDARIES ON OUTPUT.
Info: WRAPPING ALL CLUSTERS AROUND PERIODIC BOUNDARIES ON OUTPUT.
Info: FIRST LDB TIMESTEP     50
Info: LAST LDB TIMESTEP     -1
Info: HOM BACKGROUND SCALING 1
Info: PME BACKGROUND SCALING 1
Info: MIN ATOMS PER PATCH    40
Info: EMPTY PATCH LOAD       40 ATOMS
Info: INITIAL TEMPERATURE    300
Info: CENTER OF MASS MOVING INITIALLY? NO
Info: DIELECTRIC             1
Info: EXCLUDE                SCALED ONE-FOUR
Info: 1-4 ELECTROSTATICS SCALED BY 0.833333
Info: MODIFIED 1-4 VDW PARAMETERS WILL BE USED
Info: DCD FILENAME           mobley_7009711_equil.dcd
Info: DCD FREQUENCY          100000
Info: DCD FIRST STEP         100000
Info: DCD FILE WILL CONTAIN UNIT CELL DATA
Info: XST FILENAME           mobley_7009711_equil.xst
Info: XST FREQUENCY          100000
Info: NO VELOCITY DCD OUTPUT
Info: NO FORCE DCD OUTPUT
Info: OUTPUT FILENAME        mobley_7009711_equil
Info: BINARY OUTPUT FILES WILL BE USED
Info: RESTART FILENAME       mobley_7009711_equil.restart
Info: RESTART FREQUENCY      100000
Info: BINARY RESTART FILES WILL BE USED
Info: CUTOFF                 9
Info: PAIRLIST DISTANCE      11
Info: PAIRLIST SHRINK RATE   0.01
Info: PAIRLIST GROW RATE     0.01
Info: PAIRLIST TRIGGER       0.3
Info: PAIRLISTS PER CYCLE    2
Info: PAIRLISTS ENABLED
Info: MARGIN                 8
Info: HYDROGEN GROUP CUTOFF  2.5
Info: PATCH DIMENSION        21.5
Info: ENERGY OUTPUT STEPS    100000
Info: ENERGY EVALUATION STEPS    100000
Info: OUTPUT ENERGY PRECISION 4
Info: CROSSTERM ENERGY INCLUDED IN DIHEDRAL
Info: TIMING OUTPUT STEPS    1000000
Info: PRESSURE OUTPUT STEPS  100000
Info: FIXED ATOMS ACTIVE
Info: LANGEVIN DYNAMICS ACTIVE
Info: LANGEVIN TEMPERATURE   30
Info: LANGEVIN USING BBK INTEGRATOR
Info: LANGEVIN DAMPING COEFFICIENT IS 1 INVERSE PS
Info: LANGEVIN DYNAMICS APPLIED TO HYDROGENS
Info: LANGEVIN PISTON PRESSURE CONTROL ACTIVE
Info:        TARGET PRESSURE IS 1.01325 BAR
Info:     OSCILLATION PERIOD IS 50 FS
Info:             DECAY TIME IS 25 FS
Info:     PISTON TEMPERATURE IS 300 K
Info:       PRESSURE CONTROL IS GROUP-BASED
Info:    INITIAL STRAIN RATE IS 0 0 0
Info:       CELL FLUCTUATION IS ISOTROPIC
Info: PARTICLE MESH EWALD (PME) ACTIVE
Info: PME TOLERANCE               1e-06
Info: PME EWALD COEFFICIENT       0.348832
Info: PME INTERPOLATION ORDER     4
Info: PME GRID DIMENSIONS         40 40 32
Info: PME MAXIMUM GRID SPACING    1
Info: FULL ELECTROSTATIC EVALUATION FREQUENCY      2
Info: USING VERLET I (r-RESPA) MTS SCHEME.
Info: C1 SPLITTING OF LONG RANGE ELECTROSTATICS
Info: PLACING ATOMS IN PATCHES BY HYDROGEN GROUPS
Info: RIGID BONDS TO HYDROGEN : ALL
Info:         ERROR TOLERANCE : 1e-08
Info:          MAX ITERATIONS : 100
Info: RIGID WATER USING SETTLE ALGORITHM
Info: RANDOM NUMBER SEED     1743764106
Info: USE HYDROGEN BONDS?    NO
Info: Using AMBER format force field!
Info: AMBER PARM FILE        mobley_7009711.prmtop
Info: COORDINATE PDB         mobley_7009711.pdb
Info: Exclusions will be read from PARM file!
Info: SCNB (VDW SCALING)     2
Info: USING ARITHMETIC MEAN TO COMBINE L-J SIGMA PARAMETERS
Info: BINARY COORDINATES     mobley_7009711_min.coor
Info: SUMMARY OF PARAMETERS:
Info: 8 BONDS
Info: 7 ANGLES
Info:   7 HARMONIC
Info:   0 COSINE-BASED
Info: 4 DIHEDRAL
Info: 0 IMPROPER
Info: 0 CROSSTERM
Info: 0 VDW
Info: 28 VDW_PAIRS
Info: 0 NBTHOLE_PAIRS
Info: STRUCTURE SUMMARY:
Info: 2938 ATOMS
Info: 2938 BONDS
Info: 31 ANGLES
Info: 44 DIHEDRALS
Info: 0 IMPROPERS
Info: 0 CROSSTERMS
Info: 3004 EXCLUSIONS
Info: 19 FIXED ATOMS
Info: 2929 RIGID BONDS
Info: 10 RIGID BONDS BETWEEN FIXED ATOMS
Info: 5838 DEGREES OF FREEDOM
Info: 982 HYDROGEN GROUPS
Info: 4 ATOMS IN LARGEST HYDROGEN GROUP
Info: 982 MIGRATION GROUPS
Info: 4 ATOMS IN LARGEST MIGRATION GROUP
Info: 9 HYDROGEN GROUPS WITH ALL ATOMS FIXED
Info: TOTAL MASS = 17651.7 amu
Info: TOTAL CHARGE = 9.99719e-05 e
Info: MASS DENSITY = 0.674077 g/cm^3
Info: ATOM DENSITY = 0.0675639 atoms/A^3
Info: ADDED 0 IMPLICIT EXCLUSIONS
Info: NONBONDED TABLE R-SQUARED SPACING: 0.0625
Info: NONBONDED TABLE SIZE: 705 POINTS
Info: REMOVING COM VELOCITY -0.00795727 -0.147996 -0.000636667
TCL: Running for 100000 steps
ETITLE: TS BOND ANGLE DIHED IMPRP ELECT VDW BOUNDARY MISC KINETIC TOTAL TEMP POTENTIAL TOTAL3 TEMPAVG PRESSURE GPRESSURE VOLUME PRESSAVG GPRESSAVG
ENERGY: 0 0.0000 0.0000 0.0000 0.0000 -13627.8994 2408.3642 0.0000 0.0000 1733.4242 -9486.1110 298.8348 -11219.5352 -9485.7816 298.8348 443.9789 470.1813 43484.7300 443.9789 470.1813
ENERGY: 100000 0.0000 0.0000 0.0000 0.0000 -14270.7718 2566.3081 0.0000 0.0000 174.7531 -11529.7106 30.1267 -11704.4637 -11529.3256 30.9168 902.8902 952.9592 28821.6921 4.1484 4.1171
TCL: Running 100000 steps at 60 kelvin.
TCL: Setting parameter langevinTemp to 60
TCL: Running for 100000 steps
ETITLE: TS BOND ANGLE DIHED IMPRP ELECT VDW BOUNDARY MISC KINETIC TOTAL TEMP POTENTIAL TOTAL3 TEMPAVG PRESSURE GPRESSURE VOLUME PRESSAVG GPRESSAVG
ENERGY: 100000 0.0000 0.0000 0.0000 0.0000 -14270.7718 2566.3081 0.0000 0.0000 174.6670 -11529.7967 30.1118 -11704.4637 -11529.4495 30.1118 895.3656 952.9522 28821.6921 895.3656 952.9522
ENERGY: 200000 0.0000 0.0000 0.0000 0.0000 -13875.0174 2278.1766 0.0000 0.0000 350.2755 -11246.5653 60.3860 -11596.8408 -11245.9517 59.9324 -956.0348 -893.9181 28798.0565 3.7533 3.7473
TCL: Running 100000 steps at 90 kelvin.
TCL: Setting parameter langevinTemp to 90
TCL: Running for 100000 steps
ETITLE: TS BOND ANGLE DIHED IMPRP ELECT VDW BOUNDARY MISC KINETIC TOTAL TEMP POTENTIAL TOTAL3 TEMPAVG PRESSURE GPRESSURE VOLUME PRESSAVG GPRESSAVG
ENERGY: 200000 0.0000 0.0000 0.0000 0.0000 -13875.0174 2278.1766 0.0000 0.0000 350.1061 -11246.7347 60.3568 -11596.8408 -11246.0913 60.3568 -953.1321 -893.7260 28798.0565 -953.1321 -893.7260
ENERGY: 300000 0.0000 0.0000 0.0000 0.0000 -14028.3909 2470.4034 0.0000 0.0000 522.1836 -11035.8040 90.0222 -11557.9876 -11033.3251 89.8425 778.7708 858.2823 28472.3624 3.5301 3.5065
TCL: Running 100000 steps at 120 kelvin.
TCL: Setting parameter langevinTemp to 120
TCL: Running for 100000 steps
ETITLE: TS BOND ANGLE DIHED IMPRP ELECT VDW BOUNDARY MISC KINETIC TOTAL TEMP POTENTIAL TOTAL3 TEMPAVG PRESSURE GPRESSURE VOLUME PRESSAVG GPRESSAVG
ENERGY: 300000 0.0000 0.0000 0.0000 0.0000 -14028.3909 2470.4034 0.0000 0.0000 521.9329 -11036.0547 89.9790 -11557.9876 -11035.1675 89.9790 787.9033 859.4359 28472.3624 787.9033 859.4359
ENERGY: 400000 0.0000 0.0000 0.0000 0.0000 -13511.6425 2132.5015 0.0000 0.0000 687.4552 -10691.6858 118.5143 -11379.1410 -10690.1307 120.0099 -1320.8499 -1233.9134 28749.5719 3.6464 3.6845
TCL: Running 100000 steps at 150 kelvin.
TCL: Setting parameter langevinTemp to 150
TCL: Running for 100000 steps
ETITLE: TS BOND ANGLE DIHED IMPRP ELECT VDW BOUNDARY MISC KINETIC TOTAL TEMP POTENTIAL TOTAL3 TEMPAVG PRESSURE GPRESSURE VOLUME PRESSAVG GPRESSAVG
ENERGY: 400000 0.0000 0.0000 0.0000 0.0000 -13511.6425 2132.5015 0.0000 0.0000 687.1065 -10692.0345 118.4542 -11379.1410 -10690.8158 118.4542 -1290.5057 -1234.4219 28749.5719 -1290.5057 -1234.4219
ENERGY: 500000 0.0000 0.0000 0.0000 0.0000 -13396.6073 2127.3381 0.0000 0.0000 878.2436 -10391.0257 151.4054 -11269.2692 -10388.4250 150.2981 -781.0098 -738.7467 28444.4928 3.5495 3.2504
TCL: Running 100000 steps at 180 kelvin.
TCL: Setting parameter langevinTemp to 180
TCL: Running for 100000 steps
ETITLE: TS BOND ANGLE DIHED IMPRP ELECT VDW BOUNDARY MISC KINETIC TOTAL TEMP POTENTIAL TOTAL3 TEMPAVG PRESSURE GPRESSURE VOLUME PRESSAVG GPRESSAVG
ENERGY: 500000 0.0000 0.0000 0.0000 0.0000 -13396.6073 2127.3381 0.0000 0.0000 877.8212 -10391.4480 151.3326 -11269.2692 -10389.7413 151.3326 -794.5027 -737.4290 28444.4928 -794.5027 -737.4290
ENERGY: 600000 0.0000 0.0000 0.0000 0.0000 -13143.9739 2171.9386 0.0000 0.0000 1046.9953 -9925.0400 180.4974 -10972.0353 -9923.0753 180.1780 721.8737 772.5191 28430.7410 5.0102 5.0450
TCL: Running 100000 steps at 210 kelvin.
TCL: Setting parameter langevinTemp to 210
TCL: Running for 100000 steps
ETITLE: TS BOND ANGLE DIHED IMPRP ELECT VDW BOUNDARY MISC KINETIC TOTAL TEMP POTENTIAL TOTAL3 TEMPAVG PRESSURE GPRESSURE VOLUME PRESSAVG GPRESSAVG
ENERGY: 600000 0.0000 0.0000 0.0000 0.0000 -13143.9739 2171.9386 0.0000 0.0000 1046.4458 -9925.5895 180.4027 -10972.0353 -9923.7436 180.4027 697.5560 772.6898 28430.7410 697.5560 772.6898
ENERGY: 700000 0.0000 0.0000 0.0000 0.0000 -12345.3892 1853.9223 0.0000 0.0000 1234.0430 -9257.4238 212.7436 -10491.4669 -9254.8079 210.0452 -336.5799 -284.1499 28948.2529 2.7226 2.4190
TCL: Running 100000 steps at 240 kelvin.
TCL: Setting parameter langevinTemp to 240
TCL: Running for 100000 steps
ETITLE: TS BOND ANGLE DIHED IMPRP ELECT VDW BOUNDARY MISC KINETIC TOTAL TEMP POTENTIAL TOTAL3 TEMPAVG PRESSURE GPRESSURE VOLUME PRESSAVG GPRESSAVG
ENERGY: 700000 0.0000 0.0000 0.0000 0.0000 -12345.3892 1853.9223 0.0000 0.0000 1233.4596 -9258.0073 212.6431 -10491.4669 -9255.6879 212.6431 -352.1277 -284.4767 28948.2529 -352.1277 -284.4767
ENERGY: 800000 0.0000 0.0000 0.0000 0.0000 -11686.7940 1644.1592 0.0000 0.0000 1390.7830 -8651.8518 239.7649 -10042.6348 -8647.9801 240.1585 -465.2695 -429.4634 29141.8371 2.6958 2.7863
TCL: Running 100000 steps at 270 kelvin.
TCL: Setting parameter langevinTemp to 270
TCL: Running for 100000 steps
ETITLE: TS BOND ANGLE DIHED IMPRP ELECT VDW BOUNDARY MISC KINETIC TOTAL TEMP POTENTIAL TOTAL3 TEMPAVG PRESSURE GPRESSURE VOLUME PRESSAVG GPRESSAVG
ENERGY: 800000 0.0000 0.0000 0.0000 0.0000 -11686.7940 1644.1592 0.0000 0.0000 1390.0914 -8652.5434 239.6457 -10042.6348 -8650.6048 239.6457 -504.6590 -430.4242 29141.8371 -504.6590 -430.4242
ENERGY: 900000 0.0000 0.0000 0.0000 0.0000 -11181.6042 1572.8658 0.0000 0.0000 1539.3877 -8069.3506 265.3837 -9608.7384 -8064.2681 269.2415 279.9102 331.7435 29441.9452 3.8655 3.9753
TCL: Running 1000000 steps at 300 kelvin.
TCL: Setting parameter langevinTemp to 300
TCL: Running for 1000000 steps
ETITLE: TS BOND ANGLE DIHED IMPRP ELECT VDW BOUNDARY MISC KINETIC TOTAL TEMP POTENTIAL TOTAL3 TEMPAVG PRESSURE GPRESSURE VOLUME PRESSAVG GPRESSAVG
ENERGY: 900000 0.0000 0.0000 0.0000 0.0000 -11181.6042 1572.8658 0.0000 0.0000 1538.5985 -8070.1398 265.2477 -9608.7384 -8067.6780 265.2477 248.1960 333.1341 29441.9452 248.1960 333.1341
ENERGY: 1100000 0.0000 0.0000 0.0000 0.0000 -10827.2590 1514.9738 0.0000 0.0000 1742.5966 -7569.6887 300.4161 -9312.2853 -7566.2484 299.4771 640.3530 771.5204 29671.2823 2.7174 2.6531
ENERGY: 1300000 0.0000 0.0000 0.0000 0.0000 -10666.6569 1418.3506 0.0000 0.0000 1718.6843 -7529.6220 296.2937 -9248.3063 -7526.5661 299.4324 -153.4340 -81.1496 30464.7959 5.0048 4.9054
ENERGY: 1500000 0.0000 0.0000 0.0000 0.0000 -10591.6771 1367.4367 0.0000 0.0000 1727.9179 -7496.3225 297.8855 -9224.2404 -7491.6454 299.5501 -499.9245 -385.8095 30300.7211 3.8633 3.5289
ENERGY: 1700000 0.0000 0.0000 0.0000 0.0000 -10626.6212 1431.0029 0.0000 0.0000 1706.4491 -7489.1692 294.1844 -9195.6183 -7488.1282 300.5730 -207.1588 -142.6387 30995.8330 3.5712 3.5835
ENERGY: 1900000 0.0000 0.0000 0.0000 0.0000 -10733.3695 1473.0366 0.0000 0.0000 1736.9874 -7523.3454 299.4491 -9260.3328 -7518.0609 299.8942 168.5515 272.6162 30349.9453 3.9679 3.7267
TCL: Exiting due to exit command.
