Info: SIMULATION PARAMETERS:
Info: TIMESTEP               2
Info: NUMBER OF STEPS        0
Info: STEPS PER CYCLE        10
Info: PERIODIC CELL BASIS 1  36.592 0 0
Info: PERIODIC CELL BASIS 2  0 34.26 0
Info: PERIODIC CELL BASIS 3  0 0 35.516
Info: PERIODIC CELL CENTER   0 0 0
Info: WRAPPING WATERS AROUND PERIODIC BOUNDARIES ON OUTPUT.
Info: WRAPPING ALL CLUSTERS AROUND PERIODIC BOUNDARIES ON OUTPUT.
Info: FIRST LDB TIMESTEP     50
Info: LAST LDB TIMESTEP     -1
Info: HOM BACKGROUND SCALING 1
Info: PME BACKGROUND SCALING 1
Info: MIN ATOMS PER PATCH    40
Info: EMPTY PATCH LOAD       40 ATOMS
Info: INITIAL TEMPERATURE    300
Info: CENTER OF MASS MOVING INITIALLY? NO
Info: DIELECTRIC             1
Info: EXCLUDE                SCALED ONE-FOUR
Info: 1-4 ELECTROSTATICS SCALED BY 0.833333
Info: MODIFIED 1-4 VDW PARAMETERS WILL BE USED
Info: DCD FILENAME           mobley_313406_equil.dcd
Info: DCD FREQUENCY          100000
Info: DCD FIRST STEP         100000
Info: DCD FILE WILL CONTAIN UNIT CELL DATA
Info: XST FILENAME           mobley_313406_equil.xst
Info: XST FREQUENCY          100000
Info: NO VELOCITY DCD OUTPUT
Info: NO FORCE DCD OUTPUT
Info: OUTPUT FILENAME        mobley_313406_equil
Info: BINARY OUTPUT FILES WILL BE USED
Info: RESTART FILENAME       mobley_313406_equil.restart
Info: RESTART FREQUENCY      100000
Info: BINARY RESTART FILES WILL BE USED
Info: CUTOFF                 9
Info: PAIRLIST DISTANCE      11
Info: PAIRLIST SHRINK RATE   0.01
Info: PAIRLIST GROW RATE     0.01
Info: PAIRLIST TRIGGER       0.3
Info: PAIRLISTS PER CYCLE    2
Info: PAIRLISTS ENABLED
Info: MARGIN                 8
Info: HYDROGEN GROUP CUTOFF  2.5
Info: PATCH DIMENSION        21.5
Info: ENERGY OUTPUT STEPS    100000
Info: ENERGY EVALUATION STEPS    100000
Info: OUTPUT ENERGY PRECISION 4
Info: CROSSTERM ENERGY INCLUDED IN DIHEDRAL
Info: TIMING OUTPUT STEPS    1000000
Info: PRESSURE OUTPUT STEPS  100000
Info: FIXED ATOMS ACTIVE
Info: LANGEVIN DYNAMICS ACTIVE
Info: LANGEVIN TEMPERATURE   30
Info: LANGEVIN USING BBK INTEGRATOR
Info: LANGEVIN DAMPING COEFFICIENT IS 1 INVERSE PS
Info: LANGEVIN DYNAMICS APPLIED TO HYDROGENS
Info: LANGEVIN PISTON PRESSURE CONTROL ACTIVE
Info:        TARGET PRESSURE IS 1.01325 BAR
Info:     OSCILLATION PERIOD IS 50 FS
Info:             DECAY TIME IS 25 FS
Info:     PISTON TEMPERATURE IS 300 K
Info:       PRESSURE CONTROL IS GROUP-BASED
Info:    INITIAL STRAIN RATE IS 0 0 0
Info:       CELL FLUCTUATION IS ISOTROPIC
Info: PARTICLE MESH EWALD (PME) ACTIVE
Info: PME TOLERANCE               1e-06
Info: PME EWALD COEFFICIENT       0.348832
Info: PME INTERPOLATION ORDER     4
Info: PME GRID DIMENSIONS         40 36 36
Info: PME MAXIMUM GRID SPACING    1
Info: FULL ELECTROSTATIC EVALUATION FREQUENCY      2
Info: USING VERLET I (r-RESPA) MTS SCHEME.
Info: C1 SPLITTING OF LONG RANGE ELECTROSTATICS
Info: PLACING ATOMS IN PATCHES BY HYDROGEN GROUPS
Info: RIGID BONDS TO HYDROGEN : ALL
Info:         ERROR TOLERANCE : 1e-08
Info:          MAX ITERATIONS : 100
Info: RIGID WATER USING SETTLE ALGORITHM
Info: RANDOM NUMBER SEED     1744720907
Info: USE HYDROGEN BONDS?    NO
Info: Using AMBER format force field!
Info: AMBER PARM FILE        mobley_313406.prmtop
Info: COORDINATE PDB         mobley_313406.pdb
Info: Exclusions will be read from PARM file!
Info: SCNB (VDW SCALING)     2
Info: USING ARITHMETIC MEAN TO COMBINE L-J SIGMA PARAMETERS
Info: BINARY COORDINATES     mobley_313406_min.coor
Info: SUMMARY OF PARAMETERS:
Info: 7 BONDS
Info: 8 ANGLES
Info: 6 DIHEDRAL
Info: 0 IMPROPER
Info: 0 CROSSTERM
Info: 0 VDW
Info: 21 VDW_PAIRS
Info: 0 NBTHOLE_PAIRS
Info: STRUCTURE SUMMARY:
Info: 2967 ATOMS
Info: 2966 BONDS
Info: 19 ANGLES
Info: 24 DIHEDRALS
Info: 0 IMPROPERS
Info: 0 CROSSTERMS
Info: 3006 EXCLUSIONS
Info: 12 FIXED ATOMS
Info: 2963 RIGID BONDS
Info: 8 RIGID BONDS BETWEEN FIXED ATOMS
Info: 5910 DEGREES OF FREEDOM
Info: 989 HYDROGEN GROUPS
Info: 4 ATOMS IN LARGEST HYDROGEN GROUP
Info: 989 MIGRATION GROUPS
Info: 4 ATOMS IN LARGEST MIGRATION GROUP
Info: 4 HYDROGEN GROUPS WITH ALL ATOMS FIXED
Info: TOTAL MASS = 17805.9 amu
Info: TOTAL CHARGE = 9.99756e-05 e
Info: MASS DENSITY = 0.664086 g/cm^3
Info: ATOM DENSITY = 0.0666377 atoms/A^3
Info: ADDED 0 IMPLICIT EXCLUSIONS
Info: NONBONDED TABLE R-SQUARED SPACING: 0.0625
Info: NONBONDED TABLE SIZE: 705 POINTS
Info: REMOVING COM VELOCITY -0.0317386 0.0515847 0.179734
TCL: Running for 100000 steps
ETITLE: TS BOND ANGLE DIHED IMPRP ELECT VDW BOUNDARY MISC KINETIC TOTAL TEMP POTENTIAL TOTAL3 TEMPAVG PRESSURE GPRESSURE VOLUME PRESSAVG GPRESSAVG
ENERGY: 0 0.0000 0.0000 0.0000 0.0000 -13760.8028 2406.5919 0.0000 0.0000 1778.3502 -9575.8606 302.8448 -11354.2108 -9575.5094 302.8448 409.3261 438.8160 44524.3464 409.3261 438.8160
ENERGY: 100000 0.0000 0.0000 0.0000 0.0000 -14285.5090 2444.4080 0.0000 0.0000 174.0662 -11667.0349 29.6427 -11841.1011 -11666.7088 30.9582 -482.8983 -451.2184 29485.8473 3.0889 3.0347
TCL: Running 100000 steps at 60 kelvin.
TCL: Setting parameter langevinTemp to 60
TCL: Running for 100000 steps
ETITLE: TS BOND ANGLE DIHED IMPRP ELECT VDW BOUNDARY MISC KINETIC TOTAL TEMP POTENTIAL TOTAL3 TEMPAVG PRESSURE GPRESSURE VOLUME PRESSAVG GPRESSAVG
ENERGY: 100000 0.0000 0.0000 0.0000 0.0000 -14285.5090 2444.4080 0.0000 0.0000 173.9762 -11667.1249 29.6273 -11841.1011 -11666.6964 29.6273 -505.2637 -451.4087 29485.8473 -505.2637 -451.4087
ENERGY: 200000 0.0000 0.0000 0.0000 0.0000 -14384.7400 2602.3111 0.0000 0.0000 354.9899 -11427.4391 60.4531 -11782.4289 -11426.8154 59.8863 1000.6581 1071.8605 29226.5503 4.1822 4.1934
TCL: Running 100000 steps at 90 kelvin.
TCL: Setting parameter langevinTemp to 90
TCL: Running for 100000 steps
ETITLE: TS BOND ANGLE DIHED IMPRP ELECT VDW BOUNDARY MISC KINETIC TOTAL TEMP POTENTIAL TOTAL3 TEMPAVG PRESSURE GPRESSURE VOLUME PRESSAVG GPRESSAVG
ENERGY: 200000 0.0000 0.0000 0.0000 0.0000 -14384.7400 2602.3111 0.0000 0.0000 354.8069 -11427.6220 60.4220 -11782.4289 -11427.0930 60.4220 1025.8632 1072.0847 29226.5503 1025.8632 1072.0847
ENERGY: 300000 0.0000 0.0000 0.0000 0.0000 -14083.2773 2445.3816 0.0000 0.0000 549.5334 -11088.3623 93.5830 -11637.8958 -11087.4706 89.9810 -76.7024 6.9664 29859.0482 3.1232 3.1800
TCL: Running 100000 steps at 120 kelvin.
TCL: Setting parameter langevinTemp to 120
TCL: Running for 100000 steps
ETITLE: TS BOND ANGLE DIHED IMPRP ELECT VDW BOUNDARY MISC KINETIC TOTAL TEMP POTENTIAL TOTAL3 TEMPAVG PRESSURE GPRESSURE VOLUME PRESSAVG GPRESSAVG
ENERGY: 300000 0.0000 0.0000 0.0000 0.0000 -14083.2773 2445.3816 0.0000 0.0000 549.2806 -11088.6152 93.5400 -11637.8958 -11087.3600 93.5400 -56.9775 6.6117 29859.0482 -56.9775 6.6117
ENERGY: 400000 0.0000 0.0000 0.0000 0.0000 -13984.6831 2391.7470 0.0000 0.0000 729.0506 -10863.8855 124.1540 -11592.9361 -10862.0898 119.9646 75.6423 100.1772 29307.6926 4.4740 4.3600
TCL: Running 100000 steps at 150 kelvin.
TCL: Setting parameter langevinTemp to 150
TCL: Running for 100000 steps
ETITLE: TS BOND ANGLE DIHED IMPRP ELECT VDW BOUNDARY MISC KINETIC TOTAL TEMP POTENTIAL TOTAL3 TEMPAVG PRESSURE GPRESSURE VOLUME PRESSAVG GPRESSAVG
ENERGY: 400000 0.0000 0.0000 0.0000 0.0000 -13984.6831 2391.7470 0.0000 0.0000 728.6892 -10864.2469 124.0924 -11592.9361 -10862.7029 124.0924 49.5550 99.4513 29307.6926 49.5550 99.4513
ENERGY: 500000 0.0000 0.0000 0.0000 0.0000 -13580.7061 2221.7262 0.0000 0.0000 883.9857 -10474.9942 150.5387 -11358.9799 -10473.2973 150.1679 -570.4707 -498.6199 29300.9247 4.2515 4.2811
TCL: Running 100000 steps at 180 kelvin.
TCL: Setting parameter langevinTemp to 180
TCL: Running for 100000 steps
ETITLE: TS BOND ANGLE DIHED IMPRP ELECT VDW BOUNDARY MISC KINETIC TOTAL TEMP POTENTIAL TOTAL3 TEMPAVG PRESSURE GPRESSURE VOLUME PRESSAVG GPRESSAVG
ENERGY: 500000 0.0000 0.0000 0.0000 0.0000 -13580.7061 2221.7262 0.0000 0.0000 883.5480 -10475.4319 150.4641 -11358.9799 -10473.8173 150.4641 -552.2322 -498.1498 29300.9247 -552.2322 -498.1498
ENERGY: 600000 0.0000 0.0000 0.0000 0.0000 -13227.2168 2133.1777 0.0000 0.0000 1071.4853 -10022.5537 182.4690 -11094.0390 -10020.3140 180.3926 34.6484 96.2755 29003.1198 4.0837 4.0032
TCL: Running 100000 steps at 210 kelvin.
TCL: Setting parameter langevinTemp to 210
TCL: Running for 100000 steps
ETITLE: TS BOND ANGLE DIHED IMPRP ELECT VDW BOUNDARY MISC KINETIC TOTAL TEMP POTENTIAL TOTAL3 TEMPAVG PRESSURE GPRESSURE VOLUME PRESSAVG GPRESSAVG
ENERGY: 600000 0.0000 0.0000 0.0000 0.0000 -13227.2168 2133.1777 0.0000 0.0000 1070.9529 -10023.0862 182.3783 -11094.0390 -10021.1650 182.3783 28.2697 95.9829 29003.1198 28.2697 95.9829
ENERGY: 700000 0.0000 0.0000 0.0000 0.0000 -12573.2051 1912.1196 0.0000 0.0000 1220.0689 -9441.0166 207.7721 -10661.0855 -9437.2069 210.4980 -108.5018 -25.6615 28867.6035 4.1880 4.0981
TCL: Running 100000 steps at 240 kelvin.
TCL: Setting parameter langevinTemp to 240
TCL: Running for 100000 steps
ETITLE: TS BOND ANGLE DIHED IMPRP ELECT VDW BOUNDARY MISC KINETIC TOTAL TEMP POTENTIAL TOTAL3 TEMPAVG PRESSURE GPRESSURE VOLUME PRESSAVG GPRESSAVG
ENERGY: 700000 0.0000 0.0000 0.0000 0.0000 -12573.2051 1912.1196 0.0000 0.0000 1219.4512 -9441.6343 207.6669 -10661.0855 -9439.6288 207.6669 -116.5398 -24.7282 28867.6035 -116.5398 -24.7282
ENERGY: 800000 0.0000 0.0000 0.0000 0.0000 -11994.8359 1745.3979 0.0000 0.0000 1418.8135 -8830.6245 241.6174 -10249.4380 -8829.9219 239.9681 -41.3291 49.3864 29152.9089 2.3163 2.3222
TCL: Running 100000 steps at 270 kelvin.
TCL: Setting parameter langevinTemp to 270
TCL: Running for 100000 steps
ETITLE: TS BOND ANGLE DIHED IMPRP ELECT VDW BOUNDARY MISC KINETIC TOTAL TEMP POTENTIAL TOTAL3 TEMPAVG PRESSURE GPRESSURE VOLUME PRESSAVG GPRESSAVG
ENERGY: 800000 0.0000 0.0000 0.0000 0.0000 -11994.8359 1745.3979 0.0000 0.0000 1418.1389 -8831.2991 241.5025 -10249.4380 -8828.8440 241.5025 -48.9283 47.5708 29152.9089 -48.9283 47.5708
ENERGY: 900000 0.0000 0.0000 0.0000 0.0000 -11289.0427 1534.1351 0.0000 0.0000 1568.9197 -8185.9880 267.1798 -9754.9076 -8183.7667 269.6949 -409.3514 -378.4339 29993.1989 2.2930 2.3564
TCL: Running 1000000 steps at 300 kelvin.
TCL: Setting parameter langevinTemp to 300
TCL: Running for 1000000 steps
ETITLE: TS BOND ANGLE DIHED IMPRP ELECT VDW BOUNDARY MISC KINETIC TOTAL TEMP POTENTIAL TOTAL3 TEMPAVG PRESSURE GPRESSURE VOLUME PRESSAVG GPRESSAVG
ENERGY: 900000 0.0000 0.0000 0.0000 0.0000 -11289.0427 1534.1351 0.0000 0.0000 1568.0982 -8186.8095 267.0399 -9754.9076 -8184.4426 267.0399 -452.3491 -379.9412 29993.1989 -452.3491 -379.9412
ENERGY: 1100000 0.0000 0.0000 0.0000 0.0000 -10766.2540 1421.5055 0.0000 0.0000 1742.6947 -7602.0538 296.7729 -9344.7485 -7600.6648 299.8342 -155.2409 13.1264 30222.9226 3.4426 3.3203
ENERGY: 1300000 0.0000 0.0000 0.0000 0.0000 -10715.4026 1409.3612 0.0000 0.0000 1808.7426 -7497.2988 308.0205 -9306.0413 -7492.9778 300.7565 -35.5174 62.9344 30666.4372 3.0831 3.0276
ENERGY: 1500000 0.0000 0.0000 0.0000 0.0000 -10777.1787 1491.4096 0.0000 0.0000 1751.8619 -7533.9072 298.3340 -9285.7691 -7529.6282 300.4130 384.5121 526.7800 30536.6681 3.3434 3.3931
ENERGY: 1700000 0.0000 0.0000 0.0000 0.0000 -10780.9048 1441.5061 0.0000 0.0000 1797.2078 -7542.1908 306.0562 -9339.3986 -7539.6776 299.9428 -148.2819 -122.2341 31085.5875 2.3075 2.2853
ENERGY: 1900000 0.0000 0.0000 0.0000 0.0000 -10914.0998 1527.2264 0.0000 0.0000 1752.1671 -7634.7063 298.3860 -9386.8734 -7632.6456 299.9983 877.8472 976.1789 29884.8139 2.8404 2.8204
TCL: Exiting due to exit command.
