Info: SIMULATION PARAMETERS:
Info: TIMESTEP               2
Info: NUMBER OF STEPS        0
Info: STEPS PER CYCLE        10
Info: PERIODIC CELL BASIS 1  36.005 0 0
Info: PERIODIC CELL BASIS 2  0 35.779 0
Info: PERIODIC CELL BASIS 3  0 0 34.471
Info: PERIODIC CELL CENTER   0 0 0
Info: WRAPPING WATERS AROUND PERIODIC BOUNDARIES ON OUTPUT.
Info: WRAPPING ALL CLUSTERS AROUND PERIODIC BOUNDARIES ON OUTPUT.
Info: FIRST LDB TIMESTEP     50
Info: LAST LDB TIMESTEP     -1
Info: HOM BACKGROUND SCALING 1
Info: PME BACKGROUND SCALING 1
Info: MIN ATOMS PER PATCH    40
Info: EMPTY PATCH LOAD       40 ATOMS
Info: INITIAL TEMPERATURE    300
Info: CENTER OF MASS MOVING INITIALLY? NO
Info: DIELECTRIC             1
Info: EXCLUDE                SCALED ONE-FOUR
Info: 1-4 ELECTROSTATICS SCALED BY 0.833333
Info: MODIFIED 1-4 VDW PARAMETERS WILL BE USED
Info: DCD FILENAME           mobley_4699732_equil.dcd
Info: DCD FREQUENCY          100000
Info: DCD FIRST STEP         100000
Info: DCD FILE WILL CONTAIN UNIT CELL DATA
Info: XST FILENAME           mobley_4699732_equil.xst
Info: XST FREQUENCY          100000
Info: NO VELOCITY DCD OUTPUT
Info: NO FORCE DCD OUTPUT
Info: OUTPUT FILENAME        mobley_4699732_equil
Info: BINARY OUTPUT FILES WILL BE USED
Info: RESTART FILENAME       mobley_4699732_equil.restart
Info: RESTART FREQUENCY      100000
Info: BINARY RESTART FILES WILL BE USED
Info: CUTOFF                 9
Info: PAIRLIST DISTANCE      11
Info: PAIRLIST SHRINK RATE   0.01
Info: PAIRLIST GROW RATE     0.01
Info: PAIRLIST TRIGGER       0.3
Info: PAIRLISTS PER CYCLE    2
Info: PAIRLISTS ENABLED
Info: MARGIN                 8
Info: HYDROGEN GROUP CUTOFF  2.5
Info: PATCH DIMENSION        21.5
Info: ENERGY OUTPUT STEPS    100000
Info: ENERGY EVALUATION STEPS    100000
Info: OUTPUT ENERGY PRECISION 4
Info: CROSSTERM ENERGY INCLUDED IN DIHEDRAL
Info: TIMING OUTPUT STEPS    1000000
Info: PRESSURE OUTPUT STEPS  100000
Info: FIXED ATOMS ACTIVE
Info: LANGEVIN DYNAMICS ACTIVE
Info: LANGEVIN TEMPERATURE   30
Info: LANGEVIN USING BBK INTEGRATOR
Info: LANGEVIN DAMPING COEFFICIENT IS 1 INVERSE PS
Info: LANGEVIN DYNAMICS APPLIED TO HYDROGENS
Info: LANGEVIN PISTON PRESSURE CONTROL ACTIVE
Info:        TARGET PRESSURE IS 1.01325 BAR
Info:     OSCILLATION PERIOD IS 50 FS
Info:             DECAY TIME IS 25 FS
Info:     PISTON TEMPERATURE IS 300 K
Info:       PRESSURE CONTROL IS GROUP-BASED
Info:    INITIAL STRAIN RATE IS 0 0 0
Info:       CELL FLUCTUATION IS ISOTROPIC
Info: PARTICLE MESH EWALD (PME) ACTIVE
Info: PME TOLERANCE               1e-06
Info: PME EWALD COEFFICIENT       0.348832
Info: PME INTERPOLATION ORDER     4
Info: PME GRID DIMENSIONS         40 36 36
Info: PME MAXIMUM GRID SPACING    1
Info: FULL ELECTROSTATIC EVALUATION FREQUENCY      2
Info: USING VERLET I (r-RESPA) MTS SCHEME.
Info: C1 SPLITTING OF LONG RANGE ELECTROSTATICS
Info: PLACING ATOMS IN PATCHES BY HYDROGEN GROUPS
Info: RIGID BONDS TO HYDROGEN : ALL
Info:         ERROR TOLERANCE : 1e-08
Info:          MAX ITERATIONS : 100
Info: RIGID WATER USING SETTLE ALGORITHM
Info: RANDOM NUMBER SEED     1743900811
Info: USE HYDROGEN BONDS?    NO
Info: Using AMBER format force field!
Info: AMBER PARM FILE        mobley_4699732.prmtop
Info: COORDINATE PDB         mobley_4699732.pdb
Info: Exclusions will be read from PARM file!
Info: SCNB (VDW SCALING)     2
Info: USING ARITHMETIC MEAN TO COMBINE L-J SIGMA PARAMETERS
Info: BINARY COORDINATES     mobley_4699732_min.coor
Info: SUMMARY OF PARAMETERS:
Info: 6 BONDS
Info: 7 ANGLES
Info:   7 HARMONIC
Info:   0 COSINE-BASED
Info: 5 DIHEDRAL
Info: 0 IMPROPER
Info: 0 CROSSTERM
Info: 0 VDW
Info: 21 VDW_PAIRS
Info: 0 NBTHOLE_PAIRS
Info: STRUCTURE SUMMARY:
Info: 2921 ATOMS
Info: 2920 BONDS
Info: 18 ANGLES
Info: 25 DIHEDRALS
Info: 0 IMPROPERS
Info: 0 CROSSTERMS
Info: 2956 EXCLUSIONS
Info: 11 FIXED ATOMS
Info: 2916 RIGID BONDS
Info: 6 RIGID BONDS BETWEEN FIXED ATOMS
Info: 5820 DEGREES OF FREEDOM
Info: 975 HYDROGEN GROUPS
Info: 4 ATOMS IN LARGEST HYDROGEN GROUP
Info: 975 MIGRATION GROUPS
Info: 4 ATOMS IN LARGEST MIGRATION GROUP
Info: 5 HYDROGEN GROUPS WITH ALL ATOMS FIXED
Info: TOTAL MASS = 17588.5 amu
Info: TOTAL CHARGE = -9.99905e-05 e
Info: MASS DENSITY = 0.657723 g/cm^3
Info: ATOM DENSITY = 0.0657789 atoms/A^3
Info: ADDED 0 IMPLICIT EXCLUSIONS
Info: NONBONDED TABLE R-SQUARED SPACING: 0.0625
Info: NONBONDED TABLE SIZE: 705 POINTS
Info: REMOVING COM VELOCITY 0.0284445 -0.0268057 -0.0830346
TCL: Running for 100000 steps
ETITLE: TS BOND ANGLE DIHED IMPRP ELECT VDW BOUNDARY MISC KINETIC TOTAL TEMP POTENTIAL TOTAL3 TEMPAVG PRESSURE GPRESSURE VOLUME PRESSAVG GPRESSAVG
ENERGY: 0 0.0000 0.0000 0.0000 0.0000 -13541.0368 2401.4060 0.0000 0.0000 1668.5335 -9471.0973 288.5375 -11139.6308 -9470.7588 288.5375 549.6070 579.3374 44406.3314 549.6070 579.3374
ENERGY: 100000 0.0000 0.0000 0.0000 0.0000 -14139.6145 2484.1630 0.0000 0.0000 171.0697 -11484.3818 29.5829 -11655.4515 -11483.9732 30.8568 367.9432 409.1460 28131.9876 3.5585 3.4631
TCL: Running 100000 steps at 60 kelvin.
TCL: Setting parameter langevinTemp to 60
TCL: Running for 100000 steps
ETITLE: TS BOND ANGLE DIHED IMPRP ELECT VDW BOUNDARY MISC KINETIC TOTAL TEMP POTENTIAL TOTAL3 TEMPAVG PRESSURE GPRESSURE VOLUME PRESSAVG GPRESSAVG
ENERGY: 100000 0.0000 0.0000 0.0000 0.0000 -14139.6145 2484.1630 0.0000 0.0000 170.9860 -11484.4655 29.5684 -11655.4515 -11484.0692 29.5684 360.1811 408.9746 28131.9876 360.1811 408.9746
ENERGY: 200000 0.0000 0.0000 0.0000 0.0000 -13967.9319 2388.6670 0.0000 0.0000 344.1947 -11235.0702 59.5212 -11579.2648 -11234.4523 59.9649 -196.5164 -144.4880 28353.4897 4.0677 4.1070
TCL: Running 100000 steps at 90 kelvin.
TCL: Setting parameter langevinTemp to 90
TCL: Running for 100000 steps
ETITLE: TS BOND ANGLE DIHED IMPRP ELECT VDW BOUNDARY MISC KINETIC TOTAL TEMP POTENTIAL TOTAL3 TEMPAVG PRESSURE GPRESSURE VOLUME PRESSAVG GPRESSAVG
ENERGY: 200000 0.0000 0.0000 0.0000 0.0000 -13967.9319 2388.6670 0.0000 0.0000 344.0291 -11235.2357 59.4925 -11579.2648 -11234.6237 59.4925 -205.6930 -144.5211 28353.4897 -205.6930 -144.5211
ENERGY: 300000 0.0000 0.0000 0.0000 0.0000 -13812.3924 2330.7124 0.0000 0.0000 524.4384 -10957.2415 90.6905 -11481.6800 -10956.0719 89.9419 -275.2905 -220.0238 28352.7398 2.4523 2.4075
TCL: Running 100000 steps at 120 kelvin.
TCL: Setting parameter langevinTemp to 120
TCL: Running for 100000 steps
ETITLE: TS BOND ANGLE DIHED IMPRP ELECT VDW BOUNDARY MISC KINETIC TOTAL TEMP POTENTIAL TOTAL3 TEMPAVG PRESSURE GPRESSURE VOLUME PRESSAVG GPRESSAVG
ENERGY: 300000 0.0000 0.0000 0.0000 0.0000 -13812.3924 2330.7124 0.0000 0.0000 524.1966 -10957.4834 90.6487 -11481.6800 -10956.3825 90.6487 -266.3591 -220.4118 28352.7398 -266.3591 -220.4118
ENERGY: 400000 0.0000 0.0000 0.0000 0.0000 -13656.4135 2257.8497 0.0000 0.0000 697.6261 -10700.9377 120.6397 -11398.5638 -10700.1383 119.9094 -433.1938 -327.5076 28170.1814 4.2142 4.2364
TCL: Running 100000 steps at 150 kelvin.
TCL: Setting parameter langevinTemp to 150
TCL: Running for 100000 steps
ETITLE: TS BOND ANGLE DIHED IMPRP ELECT VDW BOUNDARY MISC KINETIC TOTAL TEMP POTENTIAL TOTAL3 TEMPAVG PRESSURE GPRESSURE VOLUME PRESSAVG GPRESSAVG
ENERGY: 400000 0.0000 0.0000 0.0000 0.0000 -13656.4135 2257.8497 0.0000 0.0000 697.2724 -10701.2914 120.5785 -11398.5638 -10699.8346 120.5785 -393.5282 -327.7312 28170.1814 -393.5282 -327.7312
ENERGY: 500000 0.0000 0.0000 0.0000 0.0000 -13329.8828 2157.8138 0.0000 0.0000 884.3023 -10287.7667 152.9214 -11172.0690 -10285.6016 150.0120 -624.4570 -587.3109 28528.3556 4.0087 4.1325
TCL: Running 100000 steps at 180 kelvin.
TCL: Setting parameter langevinTemp to 180
TCL: Running for 100000 steps
ETITLE: TS BOND ANGLE DIHED IMPRP ELECT VDW BOUNDARY MISC KINETIC TOTAL TEMP POTENTIAL TOTAL3 TEMPAVG PRESSURE GPRESSURE VOLUME PRESSAVG GPRESSAVG
ENERGY: 500000 0.0000 0.0000 0.0000 0.0000 -13329.8828 2157.8138 0.0000 0.0000 883.8703 -10288.1987 152.8467 -11172.0690 -10286.5761 152.8467 -639.3093 -587.2973 28528.3556 -639.3093 -587.2973
ENERGY: 600000 0.0000 0.0000 0.0000 0.0000 -13052.7874 2151.3529 0.0000 0.0000 1058.7008 -9842.7337 183.0799 -10901.4345 -9839.3196 179.9888 589.7143 708.2744 28139.7787 3.9620 3.8651
TCL: Running 100000 steps at 210 kelvin.
TCL: Setting parameter langevinTemp to 210
TCL: Running for 100000 steps
ETITLE: TS BOND ANGLE DIHED IMPRP ELECT VDW BOUNDARY MISC KINETIC TOTAL TEMP POTENTIAL TOTAL3 TEMPAVG PRESSURE GPRESSURE VOLUME PRESSAVG GPRESSAVG
ENERGY: 600000 0.0000 0.0000 0.0000 0.0000 -13052.7874 2151.3529 0.0000 0.0000 1058.1796 -9843.2548 182.9898 -10901.4345 -9841.2150 182.9898 650.2754 708.0357 28139.7787 650.2754 708.0357
ENERGY: 700000 0.0000 0.0000 0.0000 0.0000 -12362.2081 1898.4437 0.0000 0.0000 1205.1376 -9258.6268 208.4030 -10463.7644 -9257.2903 210.2221 -197.6026 -89.3102 28879.7030 2.9954 2.8831
TCL: Running 100000 steps at 240 kelvin.
TCL: Setting parameter langevinTemp to 240
TCL: Running for 100000 steps
ETITLE: TS BOND ANGLE DIHED IMPRP ELECT VDW BOUNDARY MISC KINETIC TOTAL TEMP POTENTIAL TOTAL3 TEMPAVG PRESSURE GPRESSURE VOLUME PRESSAVG GPRESSAVG
ENERGY: 700000 0.0000 0.0000 0.0000 0.0000 -12362.2081 1898.4437 0.0000 0.0000 1204.5436 -9259.2208 208.3003 -10463.7644 -9257.0674 208.3003 -181.4175 -90.6144 28879.7030 -181.4175 -90.6144
ENERGY: 800000 0.0000 0.0000 0.0000 0.0000 -11776.4718 1722.8585 0.0000 0.0000 1423.4320 -8630.1813 246.1524 -10053.6133 -8627.7778 240.3172 -310.9168 -235.9592 29238.9605 3.1568 2.9706
TCL: Running 100000 steps at 270 kelvin.
TCL: Setting parameter langevinTemp to 270
TCL: Running for 100000 steps
ETITLE: TS BOND ANGLE DIHED IMPRP ELECT VDW BOUNDARY MISC KINETIC TOTAL TEMP POTENTIAL TOTAL3 TEMPAVG PRESSURE GPRESSURE VOLUME PRESSAVG GPRESSAVG
ENERGY: 800000 0.0000 0.0000 0.0000 0.0000 -11776.4718 1722.8585 0.0000 0.0000 1422.7625 -8630.8508 246.0367 -10053.6133 -8628.8447 246.0367 -319.7031 -236.4839 29238.9605 -319.7031 -236.4839
ENERGY: 900000 0.0000 0.0000 0.0000 0.0000 -11138.2810 1593.8840 0.0000 0.0000 1557.7645 -7986.6325 269.3824 -9544.3970 -7983.1582 269.7636 373.4110 487.2736 29298.2917 3.6908 3.6388
TCL: Running 1000000 steps at 300 kelvin.
TCL: Setting parameter langevinTemp to 300
TCL: Running for 1000000 steps
ETITLE: TS BOND ANGLE DIHED IMPRP ELECT VDW BOUNDARY MISC KINETIC TOTAL TEMP POTENTIAL TOTAL3 TEMPAVG PRESSURE GPRESSURE VOLUME PRESSAVG GPRESSAVG
ENERGY: 900000 0.0000 0.0000 0.0000 0.0000 -11138.2810 1593.8840 0.0000 0.0000 1557.0227 -7987.3743 269.2541 -9544.3970 -7985.3853 269.2541 401.8532 488.4769 29298.2917 401.8532 488.4769
ENERGY: 1100000 0.0000 0.0000 0.0000 0.0000 -10596.7087 1446.0752 0.0000 0.0000 1682.5694 -7468.0641 290.9648 -9150.6335 -7466.4054 300.9664 337.2856 420.8609 29843.2141 3.0519 3.2051
ENERGY: 1300000 0.0000 0.0000 0.0000 0.0000 -10623.6464 1451.0748 0.0000 0.0000 1718.5375 -7454.0341 297.1847 -9172.5716 -7450.5113 300.6239 -26.5567 22.3918 30554.8053 2.8091 2.6453
ENERGY: 1500000 0.0000 0.0000 0.0000 0.0000 -10674.8824 1493.1024 0.0000 0.0000 1737.8241 -7443.9559 300.5199 -9181.7800 -7439.3667 300.3301 623.7874 726.5853 29795.8776 3.0785 3.1523
ENERGY: 1700000 0.0000 0.0000 0.0000 0.0000 -10750.0943 1474.0371 0.0000 0.0000 1718.9170 -7557.1402 297.2503 -9276.0573 -7553.2403 300.2102 309.4608 373.3322 29869.8626 4.1533 4.0577
ENERGY: 1900000 0.0000 0.0000 0.0000 0.0000 -10544.1741 1324.8609 0.0000 0.0000 1668.1580 -7551.1553 288.4726 -9219.3132 -7546.5409 300.2350 -1023.4430 -954.2973 30359.9042 3.2099 3.2590
TCL: Exiting due to exit command.
