Info: SIMULATION PARAMETERS:
Info: TIMESTEP               2
Info: NUMBER OF STEPS        0
Info: STEPS PER CYCLE        10
Info: PERIODIC CELL BASIS 1  36.005 0 0
Info: PERIODIC CELL BASIS 2  0 35.779 0
Info: PERIODIC CELL BASIS 3  0 0 34.954
Info: PERIODIC CELL CENTER   0 0 0
Info: WRAPPING WATERS AROUND PERIODIC BOUNDARIES ON OUTPUT.
Info: WRAPPING ALL CLUSTERS AROUND PERIODIC BOUNDARIES ON OUTPUT.
Info: FIRST LDB TIMESTEP     50
Info: LAST LDB TIMESTEP     -1
Info: HOM BACKGROUND SCALING 1
Info: PME BACKGROUND SCALING 1
Info: MIN ATOMS PER PATCH    40
Info: EMPTY PATCH LOAD       40 ATOMS
Info: INITIAL TEMPERATURE    300
Info: CENTER OF MASS MOVING INITIALLY? NO
Info: DIELECTRIC             1
Info: EXCLUDE                SCALED ONE-FOUR
Info: 1-4 ELECTROSTATICS SCALED BY 0.833333
Info: MODIFIED 1-4 VDW PARAMETERS WILL BE USED
Info: DCD FILENAME           mobley_3761215_equil.dcd
Info: DCD FREQUENCY          100000
Info: DCD FIRST STEP         100000
Info: DCD FILE WILL CONTAIN UNIT CELL DATA
Info: XST FILENAME           mobley_3761215_equil.xst
Info: XST FREQUENCY          100000
Info: NO VELOCITY DCD OUTPUT
Info: NO FORCE DCD OUTPUT
Info: OUTPUT FILENAME        mobley_3761215_equil
Info: BINARY OUTPUT FILES WILL BE USED
Info: RESTART FILENAME       mobley_3761215_equil.restart
Info: RESTART FREQUENCY      100000
Info: BINARY RESTART FILES WILL BE USED
Info: CUTOFF                 9
Info: PAIRLIST DISTANCE      11
Info: PAIRLIST SHRINK RATE   0.01
Info: PAIRLIST GROW RATE     0.01
Info: PAIRLIST TRIGGER       0.3
Info: PAIRLISTS PER CYCLE    2
Info: PAIRLISTS ENABLED
Info: MARGIN                 8
Info: HYDROGEN GROUP CUTOFF  2.5
Info: PATCH DIMENSION        21.5
Info: ENERGY OUTPUT STEPS    100000
Info: ENERGY EVALUATION STEPS    100000
Info: OUTPUT ENERGY PRECISION 4
Info: CROSSTERM ENERGY INCLUDED IN DIHEDRAL
Info: TIMING OUTPUT STEPS    1000000
Info: PRESSURE OUTPUT STEPS  100000
Info: FIXED ATOMS ACTIVE
Info: LANGEVIN DYNAMICS ACTIVE
Info: LANGEVIN TEMPERATURE   30
Info: LANGEVIN USING BBK INTEGRATOR
Info: LANGEVIN DAMPING COEFFICIENT IS 1 INVERSE PS
Info: LANGEVIN DYNAMICS APPLIED TO HYDROGENS
Info: LANGEVIN PISTON PRESSURE CONTROL ACTIVE
Info:        TARGET PRESSURE IS 1.01325 BAR
Info:     OSCILLATION PERIOD IS 50 FS
Info:             DECAY TIME IS 25 FS
Info:     PISTON TEMPERATURE IS 300 K
Info:       PRESSURE CONTROL IS GROUP-BASED
Info:    INITIAL STRAIN RATE IS 0 0 0
Info:       CELL FLUCTUATION IS ISOTROPIC
Info: PARTICLE MESH EWALD (PME) ACTIVE
Info: PME TOLERANCE               1e-06
Info: PME EWALD COEFFICIENT       0.348832
Info: PME INTERPOLATION ORDER     4
Info: PME GRID DIMENSIONS         40 36 36
Info: PME MAXIMUM GRID SPACING    1
Info: FULL ELECTROSTATIC EVALUATION FREQUENCY      2
Info: USING VERLET I (r-RESPA) MTS SCHEME.
Info: C1 SPLITTING OF LONG RANGE ELECTROSTATICS
Info: PLACING ATOMS IN PATCHES BY HYDROGEN GROUPS
Info: RIGID BONDS TO HYDROGEN : ALL
Info:         ERROR TOLERANCE : 1e-08
Info:          MAX ITERATIONS : 100
Info: RIGID WATER USING SETTLE ALGORITHM
Info: RANDOM NUMBER SEED     1743673918
Info: USE HYDROGEN BONDS?    NO
Info: Using AMBER format force field!
Info: AMBER PARM FILE        mobley_3761215.prmtop
Info: COORDINATE PDB         mobley_3761215.pdb
Info: Exclusions will be read from PARM file!
Info: SCNB (VDW SCALING)     2
Info: USING ARITHMETIC MEAN TO COMBINE L-J SIGMA PARAMETERS
Info: BINARY COORDINATES     mobley_3761215_min.coor
Info: SUMMARY OF PARAMETERS:
Info: 5 BONDS
Info: 4 ANGLES
Info:   4 HARMONIC
Info:   0 COSINE-BASED
Info: 2 DIHEDRAL
Info: 0 IMPROPER
Info: 0 CROSSTERM
Info: 0 VDW
Info: 15 VDW_PAIRS
Info: 0 NBTHOLE_PAIRS
Info: STRUCTURE SUMMARY:
Info: 2954 ATOMS
Info: 2953 BONDS
Info: 12 ANGLES
Info: 18 DIHEDRALS
Info: 0 IMPROPERS
Info: 0 CROSSTERMS
Info: 2974 EXCLUSIONS
Info: 8 FIXED ATOMS
Info: 2949 RIGID BONDS
Info: 3 RIGID BONDS BETWEEN FIXED ATOMS
Info: 5892 DEGREES OF FREEDOM
Info: 987 HYDROGEN GROUPS
Info: 4 ATOMS IN LARGEST HYDROGEN GROUP
Info: 987 MIGRATION GROUPS
Info: 4 ATOMS IN LARGEST MIGRATION GROUP
Info: 5 HYDROGEN GROUPS WITH ALL ATOMS FIXED
Info: TOTAL MASS = 17825.1 amu
Info: TOTAL CHARGE = 0.000100031 e
Info: MASS DENSITY = 0.65736 g/cm^3
Info: ATOM DENSITY = 0.0656028 atoms/A^3
Info: ADDED 0 IMPLICIT EXCLUSIONS
Info: NONBONDED TABLE R-SQUARED SPACING: 0.0625
Info: NONBONDED TABLE SIZE: 705 POINTS
Info: REMOVING COM VELOCITY -0.0684303 -0.287866 -0.124303
TCL: Running for 100000 steps
ETITLE: TS BOND ANGLE DIHED IMPRP ELECT VDW BOUNDARY MISC KINETIC TOTAL TEMP POTENTIAL TOTAL3 TEMPAVG PRESSURE GPRESSURE VOLUME PRESSAVG GPRESSAVG
ENERGY: 0 0.0000 0.0000 0.0000 0.0000 -13695.4249 2410.7828 0.0000 0.0000 1754.0555 -9530.5866 299.6201 -11284.6421 -9530.2445 299.6201 391.7314 430.6430 45028.5431 391.7314 430.6430
ENERGY: 100000 0.0000 0.0000 0.0000 0.0000 -14286.9795 2555.3107 0.0000 0.0000 171.4114 -11560.2573 29.2798 -11731.6687 -11559.9308 30.9177 920.0141 961.9062 29518.2566 3.0671 3.0911
TCL: Running 100000 steps at 60 kelvin.
TCL: Setting parameter langevinTemp to 60
TCL: Running for 100000 steps
ETITLE: TS BOND ANGLE DIHED IMPRP ELECT VDW BOUNDARY MISC KINETIC TOTAL TEMP POTENTIAL TOTAL3 TEMPAVG PRESSURE GPRESSURE VOLUME PRESSAVG GPRESSAVG
ENERGY: 100000 0.0000 0.0000 0.0000 0.0000 -14286.9795 2555.3107 0.0000 0.0000 171.3185 -11560.3503 29.2639 -11731.6687 -11560.0423 29.2639 905.2824 961.9075 29518.2566 905.2824 961.9075
ENERGY: 200000 0.0000 0.0000 0.0000 0.0000 -14008.3055 2328.7746 0.0000 0.0000 356.6748 -11322.8561 60.9256 -11679.5309 -11321.6555 59.9268 -606.8463 -579.9674 29029.0358 3.4682 3.4374
TCL: Running 100000 steps at 90 kelvin.
TCL: Setting parameter langevinTemp to 90
TCL: Running for 100000 steps
ETITLE: TS BOND ANGLE DIHED IMPRP ELECT VDW BOUNDARY MISC KINETIC TOTAL TEMP POTENTIAL TOTAL3 TEMPAVG PRESSURE GPRESSURE VOLUME PRESSAVG GPRESSAVG
ENERGY: 200000 0.0000 0.0000 0.0000 0.0000 -14008.3055 2328.7746 0.0000 0.0000 356.5013 -11323.0296 60.8960 -11679.5309 -11322.3360 60.8960 -641.4205 -579.6875 29029.0358 -641.4205 -579.6875
ENERGY: 300000 0.0000 0.0000 0.0000 0.0000 -13959.4563 2380.5804 0.0000 0.0000 534.6286 -11044.2474 91.3229 -11578.8760 -11043.2850 90.0313 101.6901 121.4686 28854.9388 3.7570 3.8699
TCL: Running 100000 steps at 120 kelvin.
TCL: Setting parameter langevinTemp to 120
TCL: Running for 100000 steps
ETITLE: TS BOND ANGLE DIHED IMPRP ELECT VDW BOUNDARY MISC KINETIC TOTAL TEMP POTENTIAL TOTAL3 TEMPAVG PRESSURE GPRESSURE VOLUME PRESSAVG GPRESSAVG
ENERGY: 300000 0.0000 0.0000 0.0000 0.0000 -13959.4563 2380.5804 0.0000 0.0000 534.3679 -11044.5080 91.2784 -11578.8760 -11043.4161 91.2784 68.5634 121.2217 28854.9388 68.5634 121.2217
ENERGY: 400000 0.0000 0.0000 0.0000 0.0000 -13774.3509 2307.3343 0.0000 0.0000 690.0767 -10776.9400 117.8759 -11467.0166 -10775.6040 120.0164 -187.6271 -178.3579 29112.6076 4.1053 4.2296
TCL: Running 100000 steps at 150 kelvin.
TCL: Setting parameter langevinTemp to 150
TCL: Running for 100000 steps
ETITLE: TS BOND ANGLE DIHED IMPRP ELECT VDW BOUNDARY MISC KINETIC TOTAL TEMP POTENTIAL TOTAL3 TEMPAVG PRESSURE GPRESSURE VOLUME PRESSAVG GPRESSAVG
ENERGY: 400000 0.0000 0.0000 0.0000 0.0000 -13774.3509 2307.3343 0.0000 0.0000 689.7148 -10777.3018 117.8141 -11467.0166 -10775.9589 117.8141 -228.9793 -178.0957 29112.6076 -228.9793 -178.0957
ENERGY: 500000 0.0000 0.0000 0.0000 0.0000 -13470.2149 2196.3161 0.0000 0.0000 888.5192 -10385.3796 151.7730 -11273.8988 -10383.4987 149.9467 -443.1604 -424.0915 29508.6597 2.9957 2.9720
TCL: Running 100000 steps at 180 kelvin.
TCL: Setting parameter langevinTemp to 180
TCL: Running for 100000 steps
ETITLE: TS BOND ANGLE DIHED IMPRP ELECT VDW BOUNDARY MISC KINETIC TOTAL TEMP POTENTIAL TOTAL3 TEMPAVG PRESSURE GPRESSURE VOLUME PRESSAVG GPRESSAVG
ENERGY: 500000 0.0000 0.0000 0.0000 0.0000 -13470.2149 2196.3161 0.0000 0.0000 888.0831 -10385.8157 151.6985 -11273.8988 -10384.2418 151.6985 -478.8518 -424.0689 29508.6597 -478.8518 -424.0689
ENERGY: 600000 0.0000 0.0000 0.0000 0.0000 -13193.0707 2164.0946 0.0000 0.0000 1085.4368 -9943.5393 185.4096 -11028.9761 -9940.2270 179.4361 539.5367 590.6562 28697.2864 3.6335 3.6061
TCL: Running 100000 steps at 210 kelvin.
TCL: Setting parameter langevinTemp to 210
TCL: Running for 100000 steps
ETITLE: TS BOND ANGLE DIHED IMPRP ELECT VDW BOUNDARY MISC KINETIC TOTAL TEMP POTENTIAL TOTAL3 TEMPAVG PRESSURE GPRESSURE VOLUME PRESSAVG GPRESSAVG
ENERGY: 600000 0.0000 0.0000 0.0000 0.0000 -13193.0707 2164.0946 0.0000 0.0000 1084.8933 -9944.0827 185.3168 -11028.9761 -9942.3181 185.3168 531.7668 593.0040 28697.2864 531.7668 593.0040
ENERGY: 700000 0.0000 0.0000 0.0000 0.0000 -12425.0061 1862.5162 0.0000 0.0000 1205.7356 -9356.7543 205.9585 -10562.4899 -9356.0245 209.6331 -366.4239 -259.2585 28914.2633 2.6585 2.6492
TCL: Running 100000 steps at 240 kelvin.
TCL: Setting parameter langevinTemp to 240
TCL: Running for 100000 steps
ETITLE: TS BOND ANGLE DIHED IMPRP ELECT VDW BOUNDARY MISC KINETIC TOTAL TEMP POTENTIAL TOTAL3 TEMPAVG PRESSURE GPRESSURE VOLUME PRESSAVG GPRESSAVG
ENERGY: 700000 0.0000 0.0000 0.0000 0.0000 -12425.0061 1862.5162 0.0000 0.0000 1205.1080 -9357.3819 205.8513 -10562.4899 -9355.6178 205.8513 -336.5012 -259.6492 28914.2633 -336.5012 -259.6492
ENERGY: 800000 0.0000 0.0000 0.0000 0.0000 -11778.3809 1705.8054 0.0000 0.0000 1375.4241 -8697.1514 234.9440 -10072.5755 -8694.3963 239.8436 -24.2376 61.7893 29137.7602 3.8335 3.9726
TCL: Running 100000 steps at 270 kelvin.
TCL: Setting parameter langevinTemp to 270
TCL: Running for 100000 steps
ETITLE: TS BOND ANGLE DIHED IMPRP ELECT VDW BOUNDARY MISC KINETIC TOTAL TEMP POTENTIAL TOTAL3 TEMPAVG PRESSURE GPRESSURE VOLUME PRESSAVG GPRESSAVG
ENERGY: 800000 0.0000 0.0000 0.0000 0.0000 -11778.3809 1705.8054 0.0000 0.0000 1374.7065 -8697.8690 234.8214 -10072.5755 -8695.7478 234.8214 -12.5673 61.2615 29137.7602 -12.5673 61.2615
ENERGY: 900000 0.0000 0.0000 0.0000 0.0000 -11117.3218 1470.9894 0.0000 0.0000 1596.4583 -8049.8741 272.7001 -9646.3325 -8047.4125 269.5399 -595.4780 -517.0386 29705.3902 3.9158 3.9916
TCL: Running 1000000 steps at 300 kelvin.
TCL: Setting parameter langevinTemp to 300
TCL: Running for 1000000 steps
ETITLE: TS BOND ANGLE DIHED IMPRP ELECT VDW BOUNDARY MISC KINETIC TOTAL TEMP POTENTIAL TOTAL3 TEMPAVG PRESSURE GPRESSURE VOLUME PRESSAVG GPRESSAVG
ENERGY: 900000 0.0000 0.0000 0.0000 0.0000 -11117.3218 1470.9894 0.0000 0.0000 1595.6776 -8050.6549 272.5667 -9646.3325 -8048.7899 272.5667 -599.6529 -516.7607 29705.3902 -599.6529 -516.7607
ENERGY: 1100000 0.0000 0.0000 0.0000 0.0000 -10715.4440 1469.1138 0.0000 0.0000 1828.7144 -7417.6158 312.3730 -9246.3302 -7413.7975 300.2538 132.1909 260.5560 30896.0058 2.8004 2.5583
ENERGY: 1300000 0.0000 0.0000 0.0000 0.0000 -10718.5863 1443.9031 0.0000 0.0000 1745.0778 -7529.6054 298.0866 -9274.6832 -7528.6660 299.3630 -129.4107 -45.9434 30817.1222 3.8546 3.7449
ENERGY: 1500000 0.0000 0.0000 0.0000 0.0000 -10697.4805 1434.5966 0.0000 0.0000 1732.0171 -7530.8667 295.8556 -9262.8839 -7528.9734 299.9556 -211.8505 -157.6332 30811.1585 3.9483 3.9347
ENERGY: 1700000 0.0000 0.0000 0.0000 0.0000 -10800.9261 1481.8667 0.0000 0.0000 1730.2906 -7588.7689 295.5607 -9319.0594 -7585.4849 299.6119 197.7282 232.8058 30364.9751 1.8546 1.8544
ENERGY: 1900000 0.0000 0.0000 0.0000 0.0000 -10683.5592 1393.0716 0.0000 0.0000 1807.8018 -7482.6858 308.8008 -9290.4876 -7477.7728 300.0485 -457.0257 -422.8172 30787.8078 3.4154 3.4180
TCL: Exiting due to exit command.
