Info: SIMULATION PARAMETERS:
Info: TIMESTEP               2
Info: NUMBER OF STEPS        0
Info: STEPS PER CYCLE        10
Info: PERIODIC CELL BASIS 1  36.281 0 0
Info: PERIODIC CELL BASIS 2  0 35.411 0
Info: PERIODIC CELL BASIS 3  0 0 34.954
Info: PERIODIC CELL CENTER   0 0 0
Info: WRAPPING WATERS AROUND PERIODIC BOUNDARIES ON OUTPUT.
Info: WRAPPING ALL CLUSTERS AROUND PERIODIC BOUNDARIES ON OUTPUT.
Info: FIRST LDB TIMESTEP     50
Info: LAST LDB TIMESTEP     -1
Info: HOM BACKGROUND SCALING 1
Info: PME BACKGROUND SCALING 1
Info: MIN ATOMS PER PATCH    40
Info: EMPTY PATCH LOAD       40 ATOMS
Info: INITIAL TEMPERATURE    300
Info: CENTER OF MASS MOVING INITIALLY? NO
Info: DIELECTRIC             1
Info: EXCLUDE                SCALED ONE-FOUR
Info: 1-4 ELECTROSTATICS SCALED BY 0.833333
Info: MODIFIED 1-4 VDW PARAMETERS WILL BE USED
Info: DCD FILENAME           mobley_5346580_equil.dcd
Info: DCD FREQUENCY          100000
Info: DCD FIRST STEP         100000
Info: DCD FILE WILL CONTAIN UNIT CELL DATA
Info: XST FILENAME           mobley_5346580_equil.xst
Info: XST FREQUENCY          100000
Info: NO VELOCITY DCD OUTPUT
Info: NO FORCE DCD OUTPUT
Info: OUTPUT FILENAME        mobley_5346580_equil
Info: BINARY OUTPUT FILES WILL BE USED
Info: RESTART FILENAME       mobley_5346580_equil.restart
Info: RESTART FREQUENCY      100000
Info: BINARY RESTART FILES WILL BE USED
Info: CUTOFF                 9
Info: PAIRLIST DISTANCE      11
Info: PAIRLIST SHRINK RATE   0.01
Info: PAIRLIST GROW RATE     0.01
Info: PAIRLIST TRIGGER       0.3
Info: PAIRLISTS PER CYCLE    2
Info: PAIRLISTS ENABLED
Info: MARGIN                 8
Info: HYDROGEN GROUP CUTOFF  2.5
Info: PATCH DIMENSION        21.5
Info: ENERGY OUTPUT STEPS    100000
Info: ENERGY EVALUATION STEPS    100000
Info: OUTPUT ENERGY PRECISION 4
Info: CROSSTERM ENERGY INCLUDED IN DIHEDRAL
Info: TIMING OUTPUT STEPS    1000000
Info: PRESSURE OUTPUT STEPS  100000
Info: FIXED ATOMS ACTIVE
Info: LANGEVIN DYNAMICS ACTIVE
Info: LANGEVIN TEMPERATURE   30
Info: LANGEVIN USING BBK INTEGRATOR
Info: LANGEVIN DAMPING COEFFICIENT IS 1 INVERSE PS
Info: LANGEVIN DYNAMICS APPLIED TO HYDROGENS
Info: LANGEVIN PISTON PRESSURE CONTROL ACTIVE
Info:        TARGET PRESSURE IS 1.01325 BAR
Info:     OSCILLATION PERIOD IS 50 FS
Info:             DECAY TIME IS 25 FS
Info:     PISTON TEMPERATURE IS 300 K
Info:       PRESSURE CONTROL IS GROUP-BASED
Info:    INITIAL STRAIN RATE IS 0 0 0
Info:       CELL FLUCTUATION IS ISOTROPIC
Info: PARTICLE MESH EWALD (PME) ACTIVE
Info: PME TOLERANCE               1e-06
Info: PME EWALD COEFFICIENT       0.348832
Info: PME INTERPOLATION ORDER     4
Info: PME GRID DIMENSIONS         40 36 36
Info: PME MAXIMUM GRID SPACING    1
Info: FULL ELECTROSTATIC EVALUATION FREQUENCY      2
Info: USING VERLET I (r-RESPA) MTS SCHEME.
Info: C1 SPLITTING OF LONG RANGE ELECTROSTATICS
Info: PLACING ATOMS IN PATCHES BY HYDROGEN GROUPS
Info: RIGID BONDS TO HYDROGEN : ALL
Info:         ERROR TOLERANCE : 1e-08
Info:          MAX ITERATIONS : 100
Info: RIGID WATER USING SETTLE ALGORITHM
Info: RANDOM NUMBER SEED     1743764076
Info: USE HYDROGEN BONDS?    NO
Info: Using AMBER format force field!
Info: AMBER PARM FILE        mobley_5346580.prmtop
Info: COORDINATE PDB         mobley_5346580.pdb
Info: Exclusions will be read from PARM file!
Info: SCNB (VDW SCALING)     2
Info: USING ARITHMETIC MEAN TO COMBINE L-J SIGMA PARAMETERS
Info: BINARY COORDINATES     mobley_5346580_min.coor
Info: SUMMARY OF PARAMETERS:
Info: 6 BONDS
Info: 7 ANGLES
Info: 7 DIHEDRAL
Info: 0 IMPROPER
Info: 0 CROSSTERM
Info: 0 VDW
Info: 21 VDW_PAIRS
Info: 0 NBTHOLE_PAIRS
Info: STRUCTURE SUMMARY:
Info: 2962 ATOMS
Info: 2961 BONDS
Info: 33 ANGLES
Info: 46 DIHEDRALS
Info: 0 IMPROPERS
Info: 0 CROSSTERMS
Info: 3033 EXCLUSIONS
Info: 19 FIXED ATOMS
Info: 2955 RIGID BONDS
Info: 12 RIGID BONDS BETWEEN FIXED ATOMS
Info: 5886 DEGREES OF FREEDOM
Info: 988 HYDROGEN GROUPS
Info: 4 ATOMS IN LARGEST HYDROGEN GROUP
Info: 988 MIGRATION GROUPS
Info: 4 ATOMS IN LARGEST MIGRATION GROUP
Info: 7 HYDROGEN GROUPS WITH ALL ATOMS FIXED
Info: TOTAL MASS = 17773.9 amu
Info: TOTAL CHARGE = -9.99793e-05 e
Info: MASS DENSITY = 0.657244 g/cm^3
Info: ATOM DENSITY = 0.0659585 atoms/A^3
Info: ADDED 0 IMPLICIT EXCLUSIONS
Info: NONBONDED TABLE R-SQUARED SPACING: 0.0625
Info: NONBONDED TABLE SIZE: 705 POINTS
Info: REMOVING COM VELOCITY 0.0204515 -0.14072 -0.0297451
TCL: Running for 100000 steps
ETITLE: TS BOND ANGLE DIHED IMPRP ELECT VDW BOUNDARY MISC KINETIC TOTAL TEMP POTENTIAL TOTAL3 TEMPAVG PRESSURE GPRESSURE VOLUME PRESSAVG GPRESSAVG
ENERGY: 0 0.0000 0.0000 0.0000 0.0000 -13774.4138 2438.9098 0.0000 0.0000 1790.7700 -9544.7339 306.2034 -11335.5039 -9544.4013 306.2034 599.3748 639.2043 44907.0288 599.3748 639.2043
ENERGY: 100000 0.0000 0.0000 0.0000 0.0000 -14377.9000 2552.5131 0.0000 0.0000 169.2717 -11656.1152 28.9437 -11825.3870 -11655.7629 30.8652 796.1505 856.3787 28541.8815 4.9832 4.9731
TCL: Running 100000 steps at 60 kelvin.
TCL: Setting parameter langevinTemp to 60
TCL: Running for 100000 steps
ETITLE: TS BOND ANGLE DIHED IMPRP ELECT VDW BOUNDARY MISC KINETIC TOTAL TEMP POTENTIAL TOTAL3 TEMPAVG PRESSURE GPRESSURE VOLUME PRESSAVG GPRESSAVG
ENERGY: 100000 0.0000 0.0000 0.0000 0.0000 -14377.9000 2552.5131 0.0000 0.0000 169.1814 -11656.2056 28.9283 -11825.3870 -11655.8314 28.9283 812.2529 856.3923 28541.8815 812.2529 856.3923
ENERGY: 200000 0.0000 0.0000 0.0000 0.0000 -14248.5636 2497.4511 0.0000 0.0000 360.3290 -11390.7835 61.6126 -11751.1125 -11390.5661 60.1057 714.8171 761.7919 28454.5254 2.8110 2.7338
TCL: Running 100000 steps at 90 kelvin.
TCL: Setting parameter langevinTemp to 90
TCL: Running for 100000 steps
ETITLE: TS BOND ANGLE DIHED IMPRP ELECT VDW BOUNDARY MISC KINETIC TOTAL TEMP POTENTIAL TOTAL3 TEMPAVG PRESSURE GPRESSURE VOLUME PRESSAVG GPRESSAVG
ENERGY: 200000 0.0000 0.0000 0.0000 0.0000 -14248.5636 2497.4511 0.0000 0.0000 360.1516 -11390.9610 61.5822 -11751.1125 -11390.2378 61.5822 715.2387 761.0825 28454.5254 715.2387 761.0825
ENERGY: 300000 0.0000 0.0000 0.0000 0.0000 -14023.0864 2381.9509 0.0000 0.0000 526.7826 -11114.3529 90.0744 -11641.1355 -11112.8288 90.0259 170.4449 261.8258 28537.1384 3.3675 3.2510
TCL: Running 100000 steps at 120 kelvin.
TCL: Setting parameter langevinTemp to 120
TCL: Running for 100000 steps
ETITLE: TS BOND ANGLE DIHED IMPRP ELECT VDW BOUNDARY MISC KINETIC TOTAL TEMP POTENTIAL TOTAL3 TEMPAVG PRESSURE GPRESSURE VOLUME PRESSAVG GPRESSAVG
ENERGY: 300000 0.0000 0.0000 0.0000 0.0000 -14023.0864 2381.9509 0.0000 0.0000 526.5155 -11114.6200 90.0288 -11641.1355 -11113.5382 90.0288 203.3174 262.1085 28537.1384 203.3174 262.1085
ENERGY: 400000 0.0000 0.0000 0.0000 0.0000 -13869.7572 2348.5741 0.0000 0.0000 725.5372 -10795.6458 124.0594 -11521.1831 -10793.8050 120.3478 77.1356 136.1574 29221.1273 3.3424 3.4015
TCL: Running 100000 steps at 150 kelvin.
TCL: Setting parameter langevinTemp to 150
TCL: Running for 100000 steps
ETITLE: TS BOND ANGLE DIHED IMPRP ELECT VDW BOUNDARY MISC KINETIC TOTAL TEMP POTENTIAL TOTAL3 TEMPAVG PRESSURE GPRESSURE VOLUME PRESSAVG GPRESSAVG
ENERGY: 400000 0.0000 0.0000 0.0000 0.0000 -13869.7572 2348.5741 0.0000 0.0000 725.1819 -10796.0012 123.9987 -11521.1831 -10794.4055 123.9987 90.9909 135.9971 29221.1273 90.9909 135.9971
ENERGY: 500000 0.0000 0.0000 0.0000 0.0000 -13523.9763 2215.8014 0.0000 0.0000 893.0267 -10415.1482 152.6984 -11308.1749 -10412.6798 149.9053 -206.0201 -196.1260 29225.2538 4.4360 4.3509
TCL: Running 100000 steps at 180 kelvin.
TCL: Setting parameter langevinTemp to 180
TCL: Running for 100000 steps
ETITLE: TS BOND ANGLE DIHED IMPRP ELECT VDW BOUNDARY MISC KINETIC TOTAL TEMP POTENTIAL TOTAL3 TEMPAVG PRESSURE GPRESSURE VOLUME PRESSAVG GPRESSAVG
ENERGY: 500000 0.0000 0.0000 0.0000 0.0000 -13523.9763 2215.8014 0.0000 0.0000 892.5835 -10415.5914 152.6226 -11308.1749 -10414.0436 152.6226 -249.8217 -194.9837 29225.2538 -249.8217 -194.9837
ENERGY: 600000 0.0000 0.0000 0.0000 0.0000 -13152.6309 2073.7455 0.0000 0.0000 1019.9471 -10058.9383 174.4005 -11078.8854 -10056.5435 180.1513 -570.2038 -487.3654 29071.8204 3.4810 3.4565
TCL: Running 100000 steps at 210 kelvin.
TCL: Setting parameter langevinTemp to 210
TCL: Running for 100000 steps
ETITLE: TS BOND ANGLE DIHED IMPRP ELECT VDW BOUNDARY MISC KINETIC TOTAL TEMP POTENTIAL TOTAL3 TEMPAVG PRESSURE GPRESSURE VOLUME PRESSAVG GPRESSAVG
ENERGY: 600000 0.0000 0.0000 0.0000 0.0000 -13152.6309 2073.7455 0.0000 0.0000 1019.4447 -10059.4407 174.3146 -11078.8854 -10057.4954 174.3146 -547.7225 -486.6569 29071.8204 -547.7225 -486.6569
ENERGY: 700000 0.0000 0.0000 0.0000 0.0000 -12525.8422 1944.1499 0.0000 0.0000 1247.6639 -9334.0285 213.3378 -10581.6924 -9330.1874 210.1609 405.1100 541.3019 28633.9164 2.6655 2.7208
TCL: Running 100000 steps at 240 kelvin.
TCL: Setting parameter langevinTemp to 240
TCL: Running for 100000 steps
ETITLE: TS BOND ANGLE DIHED IMPRP ELECT VDW BOUNDARY MISC KINETIC TOTAL TEMP POTENTIAL TOTAL3 TEMPAVG PRESSURE GPRESSURE VOLUME PRESSAVG GPRESSAVG
ENERGY: 700000 0.0000 0.0000 0.0000 0.0000 -12525.8422 1944.1499 0.0000 0.0000 1247.0359 -9334.6565 213.2304 -10581.6924 -9332.9548 213.2304 470.7408 542.9217 28633.9164 470.7408 542.9217
ENERGY: 800000 0.0000 0.0000 0.0000 0.0000 -12024.7651 1798.7656 0.0000 0.0000 1413.9933 -8812.0062 241.7784 -10225.9995 -8807.1599 239.9086 688.4082 715.3268 28639.9890 3.3070 3.1698
TCL: Running 100000 steps at 270 kelvin.
TCL: Setting parameter langevinTemp to 270
TCL: Running for 100000 steps
ETITLE: TS BOND ANGLE DIHED IMPRP ELECT VDW BOUNDARY MISC KINETIC TOTAL TEMP POTENTIAL TOTAL3 TEMPAVG PRESSURE GPRESSURE VOLUME PRESSAVG GPRESSAVG
ENERGY: 800000 0.0000 0.0000 0.0000 0.0000 -12024.7651 1798.7656 0.0000 0.0000 1413.2903 -8812.7091 241.6582 -10225.9995 -8810.6580 241.6582 628.1775 717.1336 28639.9890 628.1775 717.1336
ENERGY: 900000 0.0000 0.0000 0.0000 0.0000 -11143.5781 1447.1603 0.0000 0.0000 1597.5408 -8098.8770 273.1631 -9696.4178 -8095.0836 270.6825 -1010.3557 -930.7601 30172.7352 3.1916 3.1128
TCL: Running 1000000 steps at 300 kelvin.
TCL: Setting parameter langevinTemp to 300
TCL: Running for 1000000 steps
ETITLE: TS BOND ANGLE DIHED IMPRP ELECT VDW BOUNDARY MISC KINETIC TOTAL TEMP POTENTIAL TOTAL3 TEMPAVG PRESSURE GPRESSURE VOLUME PRESSAVG GPRESSAVG
ENERGY: 900000 0.0000 0.0000 0.0000 0.0000 -11143.5781 1447.1603 0.0000 0.0000 1596.7815 -8099.6363 273.0333 -9696.4178 -8097.2896 273.0333 -1005.4828 -929.3107 30172.7352 -1005.4828 -929.3107
ENERGY: 1100000 0.0000 0.0000 0.0000 0.0000 -10677.0899 1369.5451 0.0000 0.0000 1751.5598 -7555.9850 299.4988 -9307.5448 -7551.5163 301.0176 -564.3626 -401.2802 30647.1817 2.8987 2.7637
ENERGY: 1300000 0.0000 0.0000 0.0000 0.0000 -10714.0047 1424.4035 0.0000 0.0000 1725.6294 -7563.9719 295.0650 -9289.6013 -7561.6074 299.7960 95.0149 168.6473 30113.4431 2.9873 2.8133
ENERGY: 1500000 0.0000 0.0000 0.0000 0.0000 -10646.4554 1431.5236 0.0000 0.0000 1777.9241 -7437.0076 304.0068 -9214.9318 -7433.2695 299.5589 174.0896 238.0569 30877.0716 2.4775 2.6625
ENERGY: 1700000 0.0000 0.0000 0.0000 0.0000 -10823.4002 1441.3105 0.0000 0.0000 1798.7372 -7583.3525 307.5657 -9382.0897 -7577.9773 300.4104 -199.1321 -89.6527 30400.7882 3.1939 3.1241
ENERGY: 1900000 0.0000 0.0000 0.0000 0.0000 -10642.7109 1341.7179 0.0000 0.0000 1757.0717 -7543.9213 300.4413 -9300.9930 -7541.6342 300.4955 -748.2973 -688.4875 30735.1794 2.8556 2.9003
TCL: Exiting due to exit command.
