Info: SIMULATION PARAMETERS:
Info: TIMESTEP               2
Info: NUMBER OF STEPS        0
Info: STEPS PER CYCLE        10
Info: PERIODIC CELL BASIS 1  37.399 0 0
Info: PERIODIC CELL BASIS 2  0 34.26 0
Info: PERIODIC CELL BASIS 3  0 0 34.229
Info: PERIODIC CELL CENTER   0 0 0
Info: WRAPPING WATERS AROUND PERIODIC BOUNDARIES ON OUTPUT.
Info: WRAPPING ALL CLUSTERS AROUND PERIODIC BOUNDARIES ON OUTPUT.
Info: FIRST LDB TIMESTEP     50
Info: LAST LDB TIMESTEP     -1
Info: HOM BACKGROUND SCALING 1
Info: PME BACKGROUND SCALING 1
Info: MIN ATOMS PER PATCH    40
Info: EMPTY PATCH LOAD       40 ATOMS
Info: INITIAL TEMPERATURE    300
Info: CENTER OF MASS MOVING INITIALLY? NO
Info: DIELECTRIC             1
Info: EXCLUDE                SCALED ONE-FOUR
Info: 1-4 ELECTROSTATICS SCALED BY 0.833333
Info: MODIFIED 1-4 VDW PARAMETERS WILL BE USED
Info: DCD FILENAME           mobley_4620651_equil.dcd
Info: DCD FREQUENCY          100000
Info: DCD FIRST STEP         100000
Info: DCD FILE WILL CONTAIN UNIT CELL DATA
Info: XST FILENAME           mobley_4620651_equil.xst
Info: XST FREQUENCY          100000
Info: NO VELOCITY DCD OUTPUT
Info: NO FORCE DCD OUTPUT
Info: OUTPUT FILENAME        mobley_4620651_equil
Info: BINARY OUTPUT FILES WILL BE USED
Info: RESTART FILENAME       mobley_4620651_equil.restart
Info: RESTART FREQUENCY      100000
Info: BINARY RESTART FILES WILL BE USED
Info: CUTOFF                 9
Info: PAIRLIST DISTANCE      11
Info: PAIRLIST SHRINK RATE   0.01
Info: PAIRLIST GROW RATE     0.01
Info: PAIRLIST TRIGGER       0.3
Info: PAIRLISTS PER CYCLE    2
Info: PAIRLISTS ENABLED
Info: MARGIN                 8
Info: HYDROGEN GROUP CUTOFF  2.5
Info: PATCH DIMENSION        21.5
Info: ENERGY OUTPUT STEPS    100000
Info: ENERGY EVALUATION STEPS    100000
Info: OUTPUT ENERGY PRECISION 4
Info: CROSSTERM ENERGY INCLUDED IN DIHEDRAL
Info: TIMING OUTPUT STEPS    1000000
Info: PRESSURE OUTPUT STEPS  100000
Info: FIXED ATOMS ACTIVE
Info: LANGEVIN DYNAMICS ACTIVE
Info: LANGEVIN TEMPERATURE   30
Info: LANGEVIN USING BBK INTEGRATOR
Info: LANGEVIN DAMPING COEFFICIENT IS 1 INVERSE PS
Info: LANGEVIN DYNAMICS APPLIED TO HYDROGENS
Info: LANGEVIN PISTON PRESSURE CONTROL ACTIVE
Info:        TARGET PRESSURE IS 1.01325 BAR
Info:     OSCILLATION PERIOD IS 50 FS
Info:             DECAY TIME IS 25 FS
Info:     PISTON TEMPERATURE IS 300 K
Info:       PRESSURE CONTROL IS GROUP-BASED
Info:    INITIAL STRAIN RATE IS 0 0 0
Info:       CELL FLUCTUATION IS ISOTROPIC
Info: PARTICLE MESH EWALD (PME) ACTIVE
Info: PME TOLERANCE               1e-06
Info: PME EWALD COEFFICIENT       0.348832
Info: PME INTERPOLATION ORDER     4
Info: PME GRID DIMENSIONS         40 36 36
Info: PME MAXIMUM GRID SPACING    1
Info: FULL ELECTROSTATIC EVALUATION FREQUENCY      2
Info: USING VERLET I (r-RESPA) MTS SCHEME.
Info: C1 SPLITTING OF LONG RANGE ELECTROSTATICS
Info: PLACING ATOMS IN PATCHES BY HYDROGEN GROUPS
Info: RIGID BONDS TO HYDROGEN : ALL
Info:         ERROR TOLERANCE : 1e-08
Info:          MAX ITERATIONS : 100
Info: RIGID WATER USING SETTLE ALGORITHM
Info: RANDOM NUMBER SEED     1744090841
Info: USE HYDROGEN BONDS?    NO
Info: Using AMBER format force field!
Info: AMBER PARM FILE        mobley_4620651.prmtop
Info: COORDINATE PDB         mobley_4620651.pdb
Info: Exclusions will be read from PARM file!
Info: SCNB (VDW SCALING)     2
Info: USING ARITHMETIC MEAN TO COMBINE L-J SIGMA PARAMETERS
Info: BINARY COORDINATES     mobley_4620651_min.coor
Info: SUMMARY OF PARAMETERS:
Info: 9 BONDS
Info: 11 ANGLES
Info:   11 HARMONIC
Info:   0 COSINE-BASED
Info: 6 DIHEDRAL
Info: 0 IMPROPER
Info: 0 CROSSTERM
Info: 0 VDW
Info: 36 VDW_PAIRS
Info: 0 NBTHOLE_PAIRS
Info: STRUCTURE SUMMARY:
Info: 2967 ATOMS
Info: 2967 BONDS
Info: 28 ANGLES
Info: 37 DIHEDRALS
Info: 0 IMPROPERS
Info: 0 CROSSTERMS
Info: 3015 EXCLUSIONS
Info: 15 FIXED ATOMS
Info: 2960 RIGID BONDS
Info: 8 RIGID BONDS BETWEEN FIXED ATOMS
Info: 5904 DEGREES OF FREEDOM
Info: 991 HYDROGEN GROUPS
Info: 4 ATOMS IN LARGEST HYDROGEN GROUP
Info: 991 MIGRATION GROUPS
Info: 4 ATOMS IN LARGEST MIGRATION GROUP
Info: 7 HYDROGEN GROUPS WITH ALL ATOMS FIXED
Info: TOTAL MASS = 17827.9 amu
Info: TOTAL CHARGE = 9.9916e-05 e
Info: MASS DENSITY = 0.67502 g/cm^3
Info: ATOM DENSITY = 0.0676513 atoms/A^3
Info: ADDED 0 IMPLICIT EXCLUSIONS
Info: NONBONDED TABLE R-SQUARED SPACING: 0.0625
Info: NONBONDED TABLE SIZE: 705 POINTS
Info: REMOVING COM VELOCITY -0.120742 -0.0413039 -0.118675
TCL: Running for 100000 steps
ETITLE: TS BOND ANGLE DIHED IMPRP ELECT VDW BOUNDARY MISC KINETIC TOTAL TEMP POTENTIAL TOTAL3 TEMPAVG PRESSURE GPRESSURE VOLUME PRESSAVG GPRESSAVG
ENERGY: 0 0.0000 0.0000 0.0000 0.0000 -13732.5687 2381.7113 0.0000 0.0000 1721.9741 -9628.8834 293.5423 -11350.8574 -9628.5737 293.5423 177.5933 208.8870 43857.2665 177.5933 208.8870
ENERGY: 100000 0.0000 0.0000 0.0000 0.0000 -14275.3522 2406.9462 0.0000 0.0000 177.7284 -11690.6776 30.2971 -11868.4060 -11690.3702 30.9390 -693.8516 -616.3628 29130.1000 4.2174 4.1567
TCL: Running 100000 steps at 60 kelvin.
TCL: Setting parameter langevinTemp to 60
TCL: Running for 100000 steps
ETITLE: TS BOND ANGLE DIHED IMPRP ELECT VDW BOUNDARY MISC KINETIC TOTAL TEMP POTENTIAL TOTAL3 TEMPAVG PRESSURE GPRESSURE VOLUME PRESSAVG GPRESSAVG
ENERGY: 100000 0.0000 0.0000 0.0000 0.0000 -14275.3522 2406.9462 0.0000 0.0000 177.6431 -11690.7630 30.2825 -11868.4060 -11690.3844 30.2825 -679.0427 -616.5485 29130.1000 -679.0427 -616.5485
ENERGY: 200000 0.0000 0.0000 0.0000 0.0000 -14279.5017 2482.3322 0.0000 0.0000 354.1225 -11443.0471 60.3667 -11797.1695 -11442.1528 59.8490 215.3466 275.3630 29090.5080 3.5955 3.6103
TCL: Running 100000 steps at 90 kelvin.
TCL: Setting parameter langevinTemp to 90
TCL: Running for 100000 steps
ETITLE: TS BOND ANGLE DIHED IMPRP ELECT VDW BOUNDARY MISC KINETIC TOTAL TEMP POTENTIAL TOTAL3 TEMPAVG PRESSURE GPRESSURE VOLUME PRESSAVG GPRESSAVG
ENERGY: 200000 0.0000 0.0000 0.0000 0.0000 -14279.5017 2482.3322 0.0000 0.0000 353.9524 -11443.2171 60.3377 -11797.1695 -11442.6317 60.3377 215.3391 275.5250 29090.5080 215.3391 275.5250
ENERGY: 300000 0.0000 0.0000 0.0000 0.0000 -14083.2422 2378.5310 0.0000 0.0000 531.9536 -11172.7576 90.6813 -11704.7112 -11171.8965 89.9584 -173.5773 -123.6156 29042.9867 4.3547 4.3213
TCL: Running 100000 steps at 120 kelvin.
TCL: Setting parameter langevinTemp to 120
TCL: Running for 100000 steps
ETITLE: TS BOND ANGLE DIHED IMPRP ELECT VDW BOUNDARY MISC KINETIC TOTAL TEMP POTENTIAL TOTAL3 TEMPAVG PRESSURE GPRESSURE VOLUME PRESSAVG GPRESSAVG
ENERGY: 300000 0.0000 0.0000 0.0000 0.0000 -14083.2422 2378.5310 0.0000 0.0000 531.6759 -11173.0354 90.6340 -11704.7112 -11172.0042 90.6340 -179.6796 -123.9746 29042.9867 -179.6796 -123.9746
ENERGY: 400000 0.0000 0.0000 0.0000 0.0000 -13896.3040 2303.6031 0.0000 0.0000 699.4750 -10893.2259 119.2384 -11592.7009 -10891.6889 120.3343 -107.0401 -71.4146 28733.6766 3.9761 4.0119
TCL: Running 100000 steps at 150 kelvin.
TCL: Setting parameter langevinTemp to 150
TCL: Running for 100000 steps
ETITLE: TS BOND ANGLE DIHED IMPRP ELECT VDW BOUNDARY MISC KINETIC TOTAL TEMP POTENTIAL TOTAL3 TEMPAVG PRESSURE GPRESSURE VOLUME PRESSAVG GPRESSAVG
ENERGY: 400000 0.0000 0.0000 0.0000 0.0000 -13896.3040 2303.6031 0.0000 0.0000 699.1293 -10893.5716 119.1795 -11592.7009 -10892.1527 119.1795 -121.2808 -70.8831 28733.6766 -121.2808 -70.8831
ENERGY: 500000 0.0000 0.0000 0.0000 0.0000 -13619.4542 2210.4844 0.0000 0.0000 873.8911 -10535.0787 148.9709 -11408.9698 -10532.3440 149.5128 -497.1567 -412.2078 29115.0689 3.6875 3.5315
TCL: Running 100000 steps at 180 kelvin.
TCL: Setting parameter langevinTemp to 180
TCL: Running for 100000 steps
ETITLE: TS BOND ANGLE DIHED IMPRP ELECT VDW BOUNDARY MISC KINETIC TOTAL TEMP POTENTIAL TOTAL3 TEMPAVG PRESSURE GPRESSURE VOLUME PRESSAVG GPRESSAVG
ENERGY: 500000 0.0000 0.0000 0.0000 0.0000 -13619.4542 2210.4844 0.0000 0.0000 873.4510 -10535.5188 148.8958 -11408.9698 -10533.7299 148.8958 -465.0997 -411.9465 29115.0689 -465.0997 -411.9465
ENERGY: 600000 0.0000 0.0000 0.0000 0.0000 -13363.5998 2201.3835 0.0000 0.0000 1040.8101 -10121.4062 177.4253 -11162.2163 -10119.7620 179.5058 214.5702 263.2393 29271.0335 3.6823 3.7400
TCL: Running 100000 steps at 210 kelvin.
TCL: Setting parameter langevinTemp to 210
TCL: Running for 100000 steps
ETITLE: TS BOND ANGLE DIHED IMPRP ELECT VDW BOUNDARY MISC KINETIC TOTAL TEMP POTENTIAL TOTAL3 TEMPAVG PRESSURE GPRESSURE VOLUME PRESSAVG GPRESSAVG
ENERGY: 600000 0.0000 0.0000 0.0000 0.0000 -13363.5998 2201.3835 0.0000 0.0000 1040.2842 -10121.9322 177.3356 -11162.2163 -10120.5976 177.3356 203.1087 264.3302 29271.0335 203.1087 264.3302
ENERGY: 700000 0.0000 0.0000 0.0000 0.0000 -12528.1803 1860.7767 0.0000 0.0000 1280.4477 -9386.9559 218.2759 -10667.4036 -9383.8793 209.5798 -449.3161 -381.2366 28989.4937 3.6858 3.7364
TCL: Running 100000 steps at 240 kelvin.
TCL: Setting parameter langevinTemp to 240
TCL: Running for 100000 steps
ETITLE: TS BOND ANGLE DIHED IMPRP ELECT VDW BOUNDARY MISC KINETIC TOTAL TEMP POTENTIAL TOTAL3 TEMPAVG PRESSURE GPRESSURE VOLUME PRESSAVG GPRESSAVG
ENERGY: 700000 0.0000 0.0000 0.0000 0.0000 -12528.1803 1860.7767 0.0000 0.0000 1279.8325 -9387.5711 218.1711 -10667.4036 -9386.0250 218.1711 -462.7017 -381.8738 28989.4937 -462.7017 -381.8738
ENERGY: 800000 0.0000 0.0000 0.0000 0.0000 -11750.7307 1582.5093 0.0000 0.0000 1405.8297 -8762.3918 239.6496 -10168.2214 -8759.0068 240.0798 -1328.2857 -1206.0726 29742.0232 3.7468 3.6340
TCL: Running 100000 steps at 270 kelvin.
TCL: Setting parameter langevinTemp to 270
TCL: Running for 100000 steps
ETITLE: TS BOND ANGLE DIHED IMPRP ELECT VDW BOUNDARY MISC KINETIC TOTAL TEMP POTENTIAL TOTAL3 TEMPAVG PRESSURE GPRESSURE VOLUME PRESSAVG GPRESSAVG
ENERGY: 800000 0.0000 0.0000 0.0000 0.0000 -11750.7307 1582.5093 0.0000 0.0000 1405.1224 -8763.0990 239.5291 -10168.2214 -8760.3077 239.5291 -1291.9170 -1205.9416 29742.0232 -1291.9170 -1205.9416
ENERGY: 900000 0.0000 0.0000 0.0000 0.0000 -11311.9248 1603.1120 0.0000 0.0000 1610.7868 -8098.0260 274.5883 -9708.8128 -8096.7794 269.1367 224.2127 368.8374 29912.2724 2.5886 2.5150
TCL: Running 1000000 steps at 300 kelvin.
TCL: Setting parameter langevinTemp to 300
TCL: Running for 1000000 steps
ETITLE: TS BOND ANGLE DIHED IMPRP ELECT VDW BOUNDARY MISC KINETIC TOTAL TEMP POTENTIAL TOTAL3 TEMPAVG PRESSURE GPRESSURE VOLUME PRESSAVG GPRESSAVG
ENERGY: 900000 0.0000 0.0000 0.0000 0.0000 -11311.9248 1603.1120 0.0000 0.0000 1610.0221 -8098.7906 274.4580 -9708.8128 -8096.1125 274.4580 285.0256 366.8580 29912.2724 285.0256 366.8580
ENERGY: 1100000 0.0000 0.0000 0.0000 0.0000 -10975.5135 1506.8956 0.0000 0.0000 1772.1881 -7696.4299 302.1022 -9468.6180 -7692.9502 300.0880 359.9243 494.5678 30276.4901 3.1824 3.3070
ENERGY: 1300000 0.0000 0.0000 0.0000 0.0000 -10918.4359 1400.1416 0.0000 0.0000 1768.8609 -7749.4335 301.5350 -9518.2943 -7744.4644 300.2544 -421.1195 -318.0466 29923.7682 4.9839 5.1447
ENERGY: 1500000 0.0000 0.0000 0.0000 0.0000 -10736.4076 1399.0363 0.0000 0.0000 1764.6346 -7572.7368 300.8145 -9337.3713 -7567.5671 300.6109 -249.0027 -135.9590 30474.8306 2.6121 2.4409
ENERGY: 1700000 0.0000 0.0000 0.0000 0.0000 -10831.8793 1437.0772 0.0000 0.0000 1766.5625 -7628.2396 301.1432 -9394.8021 -7622.0375 300.3938 52.5776 72.4587 30449.8653 2.8829 2.8258
ENERGY: 1900000 0.0000 0.0000 0.0000 0.0000 -10889.0153 1439.8968 0.0000 0.0000 1732.6347 -7716.4838 295.3596 -9449.1185 -7713.4917 300.2754 -282.9974 -247.0999 30737.6890 3.1292 3.0290
TCL: Exiting due to exit command.
