Info: SIMULATION PARAMETERS:
Info: TIMESTEP               2
Info: NUMBER OF STEPS        0
Info: STEPS PER CYCLE        10
Info: PERIODIC CELL BASIS 1  36.592 0 0
Info: PERIODIC CELL BASIS 2  0 35.779 0
Info: PERIODIC CELL BASIS 3  0 0 34.229
Info: PERIODIC CELL CENTER   0 0 0
Info: WRAPPING WATERS AROUND PERIODIC BOUNDARIES ON OUTPUT.
Info: WRAPPING ALL CLUSTERS AROUND PERIODIC BOUNDARIES ON OUTPUT.
Info: FIRST LDB TIMESTEP     50
Info: LAST LDB TIMESTEP     -1
Info: HOM BACKGROUND SCALING 1
Info: PME BACKGROUND SCALING 1
Info: MIN ATOMS PER PATCH    40
Info: EMPTY PATCH LOAD       40 ATOMS
Info: INITIAL TEMPERATURE    300
Info: CENTER OF MASS MOVING INITIALLY? NO
Info: DIELECTRIC             1
Info: EXCLUDE                SCALED ONE-FOUR
Info: 1-4 ELECTROSTATICS SCALED BY 0.833333
Info: MODIFIED 1-4 VDW PARAMETERS WILL BE USED
Info: DCD FILENAME           mobley_1896013_equil.dcd
Info: DCD FREQUENCY          100000
Info: DCD FIRST STEP         100000
Info: DCD FILE WILL CONTAIN UNIT CELL DATA
Info: XST FILENAME           mobley_1896013_equil.xst
Info: XST FREQUENCY          100000
Info: NO VELOCITY DCD OUTPUT
Info: NO FORCE DCD OUTPUT
Info: OUTPUT FILENAME        mobley_1896013_equil
Info: BINARY OUTPUT FILES WILL BE USED
Info: RESTART FILENAME       mobley_1896013_equil.restart
Info: RESTART FREQUENCY      100000
Info: BINARY RESTART FILES WILL BE USED
Info: CUTOFF                 9
Info: PAIRLIST DISTANCE      11
Info: PAIRLIST SHRINK RATE   0.01
Info: PAIRLIST GROW RATE     0.01
Info: PAIRLIST TRIGGER       0.3
Info: PAIRLISTS PER CYCLE    2
Info: PAIRLISTS ENABLED
Info: MARGIN                 8
Info: HYDROGEN GROUP CUTOFF  2.5
Info: PATCH DIMENSION        21.5
Info: ENERGY OUTPUT STEPS    100000
Info: ENERGY EVALUATION STEPS    100000
Info: OUTPUT ENERGY PRECISION 4
Info: CROSSTERM ENERGY INCLUDED IN DIHEDRAL
Info: TIMING OUTPUT STEPS    1000000
Info: PRESSURE OUTPUT STEPS  100000
Info: FIXED ATOMS ACTIVE
Info: LANGEVIN DYNAMICS ACTIVE
Info: LANGEVIN TEMPERATURE   30
Info: LANGEVIN USING BBK INTEGRATOR
Info: LANGEVIN DAMPING COEFFICIENT IS 1 INVERSE PS
Info: LANGEVIN DYNAMICS APPLIED TO HYDROGENS
Info: LANGEVIN PISTON PRESSURE CONTROL ACTIVE
Info:        TARGET PRESSURE IS 1.01325 BAR
Info:     OSCILLATION PERIOD IS 50 FS
Info:             DECAY TIME IS 25 FS
Info:     PISTON TEMPERATURE IS 300 K
Info:       PRESSURE CONTROL IS GROUP-BASED
Info:    INITIAL STRAIN RATE IS 0 0 0
Info:       CELL FLUCTUATION IS ISOTROPIC
Info: PARTICLE MESH EWALD (PME) ACTIVE
Info: PME TOLERANCE               1e-06
Info: PME EWALD COEFFICIENT       0.348832
Info: PME INTERPOLATION ORDER     4
Info: PME GRID DIMENSIONS         40 36 36
Info: PME MAXIMUM GRID SPACING    1
Info: FULL ELECTROSTATIC EVALUATION FREQUENCY      2
Info: USING VERLET I (r-RESPA) MTS SCHEME.
Info: C1 SPLITTING OF LONG RANGE ELECTROSTATICS
Info: PLACING ATOMS IN PATCHES BY HYDROGEN GROUPS
Info: RIGID BONDS TO HYDROGEN : ALL
Info:         ERROR TOLERANCE : 1e-08
Info:          MAX ITERATIONS : 100
Info: RIGID WATER USING SETTLE ALGORITHM
Info: RANDOM NUMBER SEED     1744678684
Info: USE HYDROGEN BONDS?    NO
Info: Using AMBER format force field!
Info: AMBER PARM FILE        mobley_1896013.prmtop
Info: COORDINATE PDB         mobley_1896013.pdb
Info: Exclusions will be read from PARM file!
Info: SCNB (VDW SCALING)     2
Info: USING ARITHMETIC MEAN TO COMBINE L-J SIGMA PARAMETERS
Info: BINARY COORDINATES     mobley_1896013_min.coor
Info: SUMMARY OF PARAMETERS:
Info: 8 BONDS
Info: 13 ANGLES
Info:   13 HARMONIC
Info:   0 COSINE-BASED
Info: 13 DIHEDRAL
Info: 0 IMPROPER
Info: 0 CROSSTERM
Info: 0 VDW
Info: 28 VDW_PAIRS
Info: 0 NBTHOLE_PAIRS
Info: STRUCTURE SUMMARY:
Info: 2948 ATOMS
Info: 2948 BONDS
Info: 35 ANGLES
Info: 81 DIHEDRALS
Info: 0 IMPROPERS
Info: 0 CROSSTERMS
Info: 3034 EXCLUSIONS
Info: 20 FIXED ATOMS
Info: 2938 RIGID BONDS
Info: 10 RIGID BONDS BETWEEN FIXED ATOMS
Info: 5856 DEGREES OF FREEDOM
Info: 986 HYDROGEN GROUPS
Info: 3 ATOMS IN LARGEST HYDROGEN GROUP
Info: 986 MIGRATION GROUPS
Info: 3 ATOMS IN LARGEST MIGRATION GROUP
Info: 10 HYDROGEN GROUPS WITH ALL ATOMS FIXED
Info: TOTAL MASS = 17733.7 amu
Info: TOTAL CHARGE = -9.9957e-05 e
Info: MASS DENSITY = 0.65713 g/cm^3
Info: ATOM DENSITY = 0.0657838 atoms/A^3
Info: ADDED 0 IMPLICIT EXCLUSIONS
Info: NONBONDED TABLE R-SQUARED SPACING: 0.0625
Info: NONBONDED TABLE SIZE: 705 POINTS
Info: REMOVING COM VELOCITY 0.031767 -0.13296 0.0469943
TCL: Running for 100000 steps
ETITLE: TS BOND ANGLE DIHED IMPRP ELECT VDW BOUNDARY MISC KINETIC TOTAL TEMP POTENTIAL TOTAL3 TEMPAVG PRESSURE GPRESSURE VOLUME PRESSAVG GPRESSAVG
ENERGY: 0 0.0000 0.0000 0.0000 0.0000 -13807.7410 2384.0220 0.0000 0.0000 1757.1462 -9666.5729 301.9932 -11423.7190 -9666.2335 301.9932 365.3866 411.7430 44813.4683 365.3866 411.7430
ENERGY: 100000 0.0000 0.0000 0.0000 0.0000 -14249.1505 2423.5129 0.0000 0.0000 178.5375 -11647.1001 30.6845 -11825.6376 -11646.8107 30.8592 -346.9788 -314.0186 29926.7381 3.4722 3.5281
TCL: Running 100000 steps at 60 kelvin.
TCL: Setting parameter langevinTemp to 60
TCL: Running for 100000 steps
ETITLE: TS BOND ANGLE DIHED IMPRP ELECT VDW BOUNDARY MISC KINETIC TOTAL TEMP POTENTIAL TOTAL3 TEMPAVG PRESSURE GPRESSURE VOLUME PRESSAVG GPRESSAVG
ENERGY: 100000 0.0000 0.0000 0.0000 0.0000 -14249.1505 2423.5129 0.0000 0.0000 178.4455 -11647.1922 30.6687 -11825.6376 -11646.7881 30.6687 -362.4234 -314.0913 29926.7381 -362.4234 -314.0913
ENERGY: 200000 0.0000 0.0000 0.0000 0.0000 -14038.6624 2266.7235 0.0000 0.0000 336.2147 -11435.7242 57.7838 -11771.9389 -11434.4615 59.9317 -1111.6918 -1049.5095 28865.2151 3.9862 4.0216
TCL: Running 100000 steps at 90 kelvin.
TCL: Setting parameter langevinTemp to 90
TCL: Running for 100000 steps
ETITLE: TS BOND ANGLE DIHED IMPRP ELECT VDW BOUNDARY MISC KINETIC TOTAL TEMP POTENTIAL TOTAL3 TEMPAVG PRESSURE GPRESSURE VOLUME PRESSAVG GPRESSAVG
ENERGY: 200000 0.0000 0.0000 0.0000 0.0000 -14038.6624 2266.7235 0.0000 0.0000 336.0454 -11435.8934 57.7547 -11771.9389 -11435.0935 57.7547 -1095.0666 -1049.4980 28865.2151 -1095.0666 -1049.4980
ENERGY: 300000 0.0000 0.0000 0.0000 0.0000 -14037.0039 2336.1223 0.0000 0.0000 515.0551 -11185.8265 88.5203 -11700.8816 -11184.5738 90.0138 -110.1570 -91.1514 28552.4727 3.8108 3.8752
TCL: Running 100000 steps at 120 kelvin.
TCL: Setting parameter langevinTemp to 120
TCL: Running for 100000 steps
ETITLE: TS BOND ANGLE DIHED IMPRP ELECT VDW BOUNDARY MISC KINETIC TOTAL TEMP POTENTIAL TOTAL3 TEMPAVG PRESSURE GPRESSURE VOLUME PRESSAVG GPRESSAVG
ENERGY: 300000 0.0000 0.0000 0.0000 0.0000 -14037.0039 2336.1223 0.0000 0.0000 514.8094 -11186.0722 88.4781 -11700.8816 -11185.0901 88.4781 -146.7312 -90.9873 28552.4727 -146.7312 -90.9873
ENERGY: 400000 0.0000 0.0000 0.0000 0.0000 -13952.8137 2363.4608 0.0000 0.0000 700.8495 -10888.5034 120.4520 -11589.3528 -10887.0039 120.0433 326.2554 410.8319 28733.4530 5.2238 5.1551
TCL: Running 100000 steps at 150 kelvin.
TCL: Setting parameter langevinTemp to 150
TCL: Running for 100000 steps
ETITLE: TS BOND ANGLE DIHED IMPRP ELECT VDW BOUNDARY MISC KINETIC TOTAL TEMP POTENTIAL TOTAL3 TEMPAVG PRESSURE GPRESSURE VOLUME PRESSAVG GPRESSAVG
ENERGY: 400000 0.0000 0.0000 0.0000 0.0000 -13952.8137 2363.4608 0.0000 0.0000 700.4967 -10888.8562 120.3914 -11589.3528 -10887.5983 120.3914 358.5702 410.7101 28733.4530 358.5702 410.7101
ENERGY: 500000 0.0000 0.0000 0.0000 0.0000 -13662.5416 2235.1284 0.0000 0.0000 864.8369 -10562.5763 148.6358 -11427.4132 -10560.5814 149.7523 -180.0012 -134.7651 28943.0780 4.0969 4.1347
TCL: Running 100000 steps at 180 kelvin.
TCL: Setting parameter langevinTemp to 180
TCL: Running for 100000 steps
ETITLE: TS BOND ANGLE DIHED IMPRP ELECT VDW BOUNDARY MISC KINETIC TOTAL TEMP POTENTIAL TOTAL3 TEMPAVG PRESSURE GPRESSURE VOLUME PRESSAVG GPRESSAVG
ENERGY: 500000 0.0000 0.0000 0.0000 0.0000 -13662.5416 2235.1284 0.0000 0.0000 864.3965 -10563.0167 148.5601 -11427.4132 -10561.5153 148.5601 -192.9030 -135.0948 28943.0780 -192.9030 -135.0948
ENERGY: 600000 0.0000 0.0000 0.0000 0.0000 -13134.9913 2058.2269 0.0000 0.0000 1062.9458 -10013.8186 182.6840 -11076.7644 -10011.8131 179.8318 -142.8940 -149.4942 28804.8633 2.9354 2.8550
TCL: Running 100000 steps at 210 kelvin.
TCL: Setting parameter langevinTemp to 210
TCL: Running for 100000 steps
ETITLE: TS BOND ANGLE DIHED IMPRP ELECT VDW BOUNDARY MISC KINETIC TOTAL TEMP POTENTIAL TOTAL3 TEMPAVG PRESSURE GPRESSURE VOLUME PRESSAVG GPRESSAVG
ENERGY: 600000 0.0000 0.0000 0.0000 0.0000 -13134.9913 2058.2269 0.0000 0.0000 1062.4123 -10014.3521 182.5923 -11076.7644 -10012.2265 182.5923 -207.3678 -150.2342 28804.8633 -207.3678 -150.2342
ENERGY: 700000 0.0000 0.0000 0.0000 0.0000 -12595.5280 1904.3173 0.0000 0.0000 1223.5019 -9467.7088 210.2781 -10691.2107 -9464.7068 209.9361 -147.5021 -136.3418 29142.4660 3.9318 3.8413
TCL: Running 100000 steps at 240 kelvin.
TCL: Setting parameter langevinTemp to 240
TCL: Running for 100000 steps
ETITLE: TS BOND ANGLE DIHED IMPRP ELECT VDW BOUNDARY MISC KINETIC TOTAL TEMP POTENTIAL TOTAL3 TEMPAVG PRESSURE GPRESSURE VOLUME PRESSAVG GPRESSAVG
ENERGY: 700000 0.0000 0.0000 0.0000 0.0000 -12595.5280 1904.3173 0.0000 0.0000 1222.8984 -9468.3122 210.1743 -10691.2107 -9465.8504 210.1743 -209.7499 -136.4920 29142.4660 -209.7499 -136.4920
ENERGY: 800000 0.0000 0.0000 0.0000 0.0000 -11778.4733 1579.5808 0.0000 0.0000 1425.5429 -8773.3496 245.0020 -10198.8925 -8770.8868 240.2483 -1077.0234 -958.8974 29313.1986 2.6223 2.6873
TCL: Running 100000 steps at 270 kelvin.
TCL: Setting parameter langevinTemp to 270
TCL: Running for 100000 steps
ETITLE: TS BOND ANGLE DIHED IMPRP ELECT VDW BOUNDARY MISC KINETIC TOTAL TEMP POTENTIAL TOTAL3 TEMPAVG PRESSURE GPRESSURE VOLUME PRESSAVG GPRESSAVG
ENERGY: 800000 0.0000 0.0000 0.0000 0.0000 -11778.4733 1579.5808 0.0000 0.0000 1424.8806 -8774.0118 244.8882 -10198.8925 -8771.6478 244.8882 -1040.9074 -960.0226 29313.1986 -1040.9074 -960.0226
ENERGY: 900000 0.0000 0.0000 0.0000 0.0000 -11494.5915 1652.8593 0.0000 0.0000 1596.0411 -8245.6911 274.3048 -9841.7322 -8244.6093 270.0140 765.4325 837.3298 29358.7500 4.2987 4.1480
TCL: Running 1000000 steps at 300 kelvin.
TCL: Setting parameter langevinTemp to 300
TCL: Running for 1000000 steps
ETITLE: TS BOND ANGLE DIHED IMPRP ELECT VDW BOUNDARY MISC KINETIC TOTAL TEMP POTENTIAL TOTAL3 TEMPAVG PRESSURE GPRESSURE VOLUME PRESSAVG GPRESSAVG
ENERGY: 900000 0.0000 0.0000 0.0000 0.0000 -11494.5915 1652.8593 0.0000 0.0000 1595.2720 -8246.4602 274.1726 -9841.7322 -8244.1776 274.1726 752.9050 837.4001 29358.7500 752.9050 837.4001
ENERGY: 1100000 0.0000 0.0000 0.0000 0.0000 -10878.6631 1431.1294 0.0000 0.0000 1699.1738 -7748.3600 292.0298 -9447.5338 -7745.8705 300.1515 -58.2177 -24.2224 30246.7427 4.0578 4.0992
ENERGY: 1300000 0.0000 0.0000 0.0000 0.0000 -11113.5803 1682.9062 0.0000 0.0000 1775.0869 -7655.5872 305.0766 -9430.6741 -7650.5402 300.1397 1846.7102 1954.3824 30099.9802 1.6476 1.6404
ENERGY: 1500000 0.0000 0.0000 0.0000 0.0000 -10934.5002 1508.2196 0.0000 0.0000 1757.9827 -7668.2979 302.1370 -9426.2806 -7663.5858 300.3850 656.1749 730.5366 30101.7068 2.7639 2.6306
ENERGY: 1700000 0.0000 0.0000 0.0000 0.0000 -10838.8661 1441.2624 0.0000 0.0000 1789.9941 -7607.6096 307.6387 -9397.6037 -7603.9353 299.7639 169.2400 280.6242 30087.3421 2.2057 2.1671
ENERGY: 1900000 0.0000 0.0000 0.0000 0.0000 -10857.3599 1468.3327 0.0000 0.0000 1703.1380 -7685.8893 292.7111 -9389.0273 -7680.6419 300.2693 402.3645 496.6846 30108.2561 2.1535 1.9895
TCL: Exiting due to exit command.
