Info: SIMULATION PARAMETERS:
Info: TIMESTEP               2
Info: NUMBER OF STEPS        0
Info: STEPS PER CYCLE        10
Info: PERIODIC CELL BASIS 1  36.005 0 0
Info: PERIODIC CELL BASIS 2  0 35.847 0
Info: PERIODIC CELL BASIS 3  0 0 34.68
Info: PERIODIC CELL CENTER   0 0 0
Info: WRAPPING WATERS AROUND PERIODIC BOUNDARIES ON OUTPUT.
Info: WRAPPING ALL CLUSTERS AROUND PERIODIC BOUNDARIES ON OUTPUT.
Info: FIRST LDB TIMESTEP     50
Info: LAST LDB TIMESTEP     -1
Info: HOM BACKGROUND SCALING 1
Info: PME BACKGROUND SCALING 1
Info: MIN ATOMS PER PATCH    40
Info: EMPTY PATCH LOAD       40 ATOMS
Info: INITIAL TEMPERATURE    300
Info: CENTER OF MASS MOVING INITIALLY? NO
Info: DIELECTRIC             1
Info: EXCLUDE                SCALED ONE-FOUR
Info: 1-4 ELECTROSTATICS SCALED BY 0.833333
Info: MODIFIED 1-4 VDW PARAMETERS WILL BE USED
Info: DCD FILENAME           mobley_951560_equil.dcd
Info: DCD FREQUENCY          100000
Info: DCD FIRST STEP         100000
Info: DCD FILE WILL CONTAIN UNIT CELL DATA
Info: XST FILENAME           mobley_951560_equil.xst
Info: XST FREQUENCY          100000
Info: NO VELOCITY DCD OUTPUT
Info: NO FORCE DCD OUTPUT
Info: OUTPUT FILENAME        mobley_951560_equil
Info: BINARY OUTPUT FILES WILL BE USED
Info: RESTART FILENAME       mobley_951560_equil.restart
Info: RESTART FREQUENCY      100000
Info: BINARY RESTART FILES WILL BE USED
Info: CUTOFF                 9
Info: PAIRLIST DISTANCE      11
Info: PAIRLIST SHRINK RATE   0.01
Info: PAIRLIST GROW RATE     0.01
Info: PAIRLIST TRIGGER       0.3
Info: PAIRLISTS PER CYCLE    2
Info: PAIRLISTS ENABLED
Info: MARGIN                 8
Info: HYDROGEN GROUP CUTOFF  2.5
Info: PATCH DIMENSION        21.5
Info: ENERGY OUTPUT STEPS    100000
Info: ENERGY EVALUATION STEPS    100000
Info: OUTPUT ENERGY PRECISION 4
Info: CROSSTERM ENERGY INCLUDED IN DIHEDRAL
Info: TIMING OUTPUT STEPS    1000000
Info: PRESSURE OUTPUT STEPS  100000
Info: FIXED ATOMS ACTIVE
Info: LANGEVIN DYNAMICS ACTIVE
Info: LANGEVIN TEMPERATURE   30
Info: LANGEVIN USING BBK INTEGRATOR
Info: LANGEVIN DAMPING COEFFICIENT IS 1 INVERSE PS
Info: LANGEVIN DYNAMICS APPLIED TO HYDROGENS
Info: LANGEVIN PISTON PRESSURE CONTROL ACTIVE
Info:        TARGET PRESSURE IS 1.01325 BAR
Info:     OSCILLATION PERIOD IS 50 FS
Info:             DECAY TIME IS 25 FS
Info:     PISTON TEMPERATURE IS 300 K
Info:       PRESSURE CONTROL IS GROUP-BASED
Info:    INITIAL STRAIN RATE IS 0 0 0
Info:       CELL FLUCTUATION IS ISOTROPIC
Info: PARTICLE MESH EWALD (PME) ACTIVE
Info: PME TOLERANCE               1e-06
Info: PME EWALD COEFFICIENT       0.348832
Info: PME INTERPOLATION ORDER     4
Info: PME GRID DIMENSIONS         40 36 36
Info: PME MAXIMUM GRID SPACING    1
Info: FULL ELECTROSTATIC EVALUATION FREQUENCY      2
Info: USING VERLET I (r-RESPA) MTS SCHEME.
Info: C1 SPLITTING OF LONG RANGE ELECTROSTATICS
Info: PLACING ATOMS IN PATCHES BY HYDROGEN GROUPS
Info: RIGID BONDS TO HYDROGEN : ALL
Info:         ERROR TOLERANCE : 1e-08
Info:          MAX ITERATIONS : 100
Info: RIGID WATER USING SETTLE ALGORITHM
Info: RANDOM NUMBER SEED     1744676414
Info: USE HYDROGEN BONDS?    NO
Info: Using AMBER format force field!
Info: AMBER PARM FILE        mobley_951560.prmtop
Info: COORDINATE PDB         mobley_951560.pdb
Info: Exclusions will be read from PARM file!
Info: SCNB (VDW SCALING)     2
Info: USING ARITHMETIC MEAN TO COMBINE L-J SIGMA PARAMETERS
Info: BINARY COORDINATES     mobley_951560_min.coor
Info: SUMMARY OF PARAMETERS:
Info: 6 BONDS
Info: 6 ANGLES
Info:   6 HARMONIC
Info:   0 COSINE-BASED
Info: 3 DIHEDRAL
Info: 0 IMPROPER
Info: 0 CROSSTERM
Info: 0 VDW
Info: 21 VDW_PAIRS
Info: 0 NBTHOLE_PAIRS
Info: STRUCTURE SUMMARY:
Info: 2938 ATOMS
Info: 2938 BONDS
Info: 30 ANGLES
Info: 46 DIHEDRALS
Info: 0 IMPROPERS
Info: 0 CROSSTERMS
Info: 3007 EXCLUSIONS
Info: 16 FIXED ATOMS
Info: 2932 RIGID BONDS
Info: 10 RIGID BONDS BETWEEN FIXED ATOMS
Info: 5844 DEGREES OF FREEDOM
Info: 980 HYDROGEN GROUPS
Info: 3 ATOMS IN LARGEST HYDROGEN GROUP
Info: 980 MIGRATION GROUPS
Info: 3 ATOMS IN LARGEST MIGRATION GROUP
Info: 6 HYDROGEN GROUPS WITH ALL ATOMS FIXED
Info: TOTAL MASS = 17633.7 amu
Info: TOTAL CHARGE = 8.9407e-08 e
Info: MASS DENSITY = 0.654197 g/cm^3
Info: ATOM DENSITY = 0.0656383 atoms/A^3
Info: ADDED 0 IMPLICIT EXCLUSIONS
Info: NONBONDED TABLE R-SQUARED SPACING: 0.0625
Info: NONBONDED TABLE SIZE: 705 POINTS
Info: REMOVING COM VELOCITY -0.0628627 0.122945 0.0649356
TCL: Running for 100000 steps
ETITLE: TS BOND ANGLE DIHED IMPRP ELECT VDW BOUNDARY MISC KINETIC TOTAL TEMP POTENTIAL TOTAL3 TEMPAVG PRESSURE GPRESSURE VOLUME PRESSAVG GPRESSAVG
ENERGY: 0 0.0000 0.0000 0.0000 0.0000 -13700.9288 2421.0367 0.0000 0.0000 1792.9791 -9486.9130 308.7844 -11279.8921 -9486.5545 308.7844 592.8928 628.2718 44760.4784 592.8928 628.2718
ENERGY: 100000 0.0000 0.0000 0.0000 0.0000 -14164.6424 2362.9253 0.0000 0.0000 176.2007 -11625.5164 30.3450 -11801.7171 -11625.0872 30.9189 -872.4148 -829.0195 29309.1884 4.0321 3.9942
TCL: Running 100000 steps at 60 kelvin.
TCL: Setting parameter langevinTemp to 60
TCL: Running for 100000 steps
ETITLE: TS BOND ANGLE DIHED IMPRP ELECT VDW BOUNDARY MISC KINETIC TOTAL TEMP POTENTIAL TOTAL3 TEMPAVG PRESSURE GPRESSURE VOLUME PRESSAVG GPRESSAVG
ENERGY: 100000 0.0000 0.0000 0.0000 0.0000 -14164.6424 2362.9253 0.0000 0.0000 176.1124 -11625.6047 30.3298 -11801.7171 -11625.1901 30.3298 -876.5766 -829.0166 29309.1884 -876.5766 -829.0166
ENERGY: 200000 0.0000 0.0000 0.0000 0.0000 -14173.2167 2441.9994 0.0000 0.0000 355.9806 -11375.2367 61.3065 -11731.2173 -11373.9784 60.1042 88.2272 107.3032 29041.8711 3.2797 3.3109
TCL: Running 100000 steps at 90 kelvin.
TCL: Setting parameter langevinTemp to 90
TCL: Running for 100000 steps
ETITLE: TS BOND ANGLE DIHED IMPRP ELECT VDW BOUNDARY MISC KINETIC TOTAL TEMP POTENTIAL TOTAL3 TEMPAVG PRESSURE GPRESSURE VOLUME PRESSAVG GPRESSAVG
ENERGY: 200000 0.0000 0.0000 0.0000 0.0000 -14173.2167 2441.9994 0.0000 0.0000 355.8007 -11375.4166 61.2755 -11731.2173 -11374.7035 61.2755 69.8237 107.5646 29041.8711 69.8237 107.5646
ENERGY: 300000 0.0000 0.0000 0.0000 0.0000 -13998.7195 2391.1436 0.0000 0.0000 514.9849 -11092.5910 88.6900 -11607.5759 -11091.6557 89.8738 -30.7519 -47.9153 29474.0843 3.9330 3.9731
TCL: Running 100000 steps at 120 kelvin.
TCL: Setting parameter langevinTemp to 120
TCL: Running for 100000 steps
ETITLE: TS BOND ANGLE DIHED IMPRP ELECT VDW BOUNDARY MISC KINETIC TOTAL TEMP POTENTIAL TOTAL3 TEMPAVG PRESSURE GPRESSURE VOLUME PRESSAVG GPRESSAVG
ENERGY: 300000 0.0000 0.0000 0.0000 0.0000 -13998.7195 2391.1436 0.0000 0.0000 514.7346 -11092.8413 88.6469 -11607.5759 -11091.7803 88.6469 -88.7415 -48.3945 29474.0843 -88.7415 -48.3945
ENERGY: 400000 0.0000 0.0000 0.0000 0.0000 -13800.1821 2322.5187 0.0000 0.0000 707.6183 -10770.0451 121.8651 -11477.6634 -10768.4470 119.9960 195.2022 257.5494 28834.8027 4.7701 5.0159
TCL: Running 100000 steps at 150 kelvin.
TCL: Setting parameter langevinTemp to 150
TCL: Running for 100000 steps
ETITLE: TS BOND ANGLE DIHED IMPRP ELECT VDW BOUNDARY MISC KINETIC TOTAL TEMP POTENTIAL TOTAL3 TEMPAVG PRESSURE GPRESSURE VOLUME PRESSAVG GPRESSAVG
ENERGY: 400000 0.0000 0.0000 0.0000 0.0000 -13800.1821 2322.5187 0.0000 0.0000 707.2721 -10770.3913 121.8054 -11477.6634 -10768.9322 121.8054 199.8472 257.1476 28834.8027 199.8472 257.1476
ENERGY: 500000 0.0000 0.0000 0.0000 0.0000 -13672.9684 2330.9287 0.0000 0.0000 851.0861 -10490.9536 146.5729 -11342.0397 -10488.3368 149.9567 646.0311 655.6191 28769.5507 3.8637 3.9252
TCL: Running 100000 steps at 180 kelvin.
TCL: Setting parameter langevinTemp to 180
TCL: Running for 100000 steps
ETITLE: TS BOND ANGLE DIHED IMPRP ELECT VDW BOUNDARY MISC KINETIC TOTAL TEMP POTENTIAL TOTAL3 TEMPAVG PRESSURE GPRESSURE VOLUME PRESSAVG GPRESSAVG
ENERGY: 500000 0.0000 0.0000 0.0000 0.0000 -13672.9684 2330.9287 0.0000 0.0000 850.6649 -10491.3748 146.5004 -11342.0397 -10489.6411 146.5004 602.0524 656.1046 28769.5507 602.0524 656.1046
ENERGY: 600000 0.0000 0.0000 0.0000 0.0000 -13056.5118 2054.1311 0.0000 0.0000 1046.5666 -9955.8140 180.2383 -11002.3807 -9953.9707 180.1841 -500.6193 -448.6120 29065.0753 5.3605 5.3666
TCL: Running 100000 steps at 210 kelvin.
TCL: Setting parameter langevinTemp to 210
TCL: Running for 100000 steps
ETITLE: TS BOND ANGLE DIHED IMPRP ELECT VDW BOUNDARY MISC KINETIC TOTAL TEMP POTENTIAL TOTAL3 TEMPAVG PRESSURE GPRESSURE VOLUME PRESSAVG GPRESSAVG
ENERGY: 600000 0.0000 0.0000 0.0000 0.0000 -13056.5118 2054.1311 0.0000 0.0000 1046.0308 -9956.3499 180.1460 -11002.3807 -9954.2878 180.1460 -511.2277 -448.2127 29065.0753 -511.2277 -448.2127
ENERGY: 700000 0.0000 0.0000 0.0000 0.0000 -12449.4760 1879.8565 0.0000 0.0000 1228.7625 -9340.8570 211.6158 -10569.6195 -9337.9389 210.0017 -88.4741 -20.3132 28886.6184 2.5846 2.5677
TCL: Running 100000 steps at 240 kelvin.
TCL: Setting parameter langevinTemp to 240
TCL: Running for 100000 steps
ETITLE: TS BOND ANGLE DIHED IMPRP ELECT VDW BOUNDARY MISC KINETIC TOTAL TEMP POTENTIAL TOTAL3 TEMPAVG PRESSURE GPRESSURE VOLUME PRESSAVG GPRESSAVG
ENERGY: 700000 0.0000 0.0000 0.0000 0.0000 -12449.4760 1879.8565 0.0000 0.0000 1228.1330 -9341.4866 211.5074 -10569.6195 -9339.2804 211.5074 -95.5216 -20.3543 28886.6184 -95.5216 -20.3543
ENERGY: 800000 0.0000 0.0000 0.0000 0.0000 -11810.2460 1663.4957 0.0000 0.0000 1365.8475 -8780.9029 235.2244 -10146.7504 -8777.4085 240.4536 -289.9053 -220.1499 28911.5939 3.2441 3.2562
TCL: Running 100000 steps at 270 kelvin.
TCL: Setting parameter langevinTemp to 270
TCL: Running for 100000 steps
ETITLE: TS BOND ANGLE DIHED IMPRP ELECT VDW BOUNDARY MISC KINETIC TOTAL TEMP POTENTIAL TOTAL3 TEMPAVG PRESSURE GPRESSURE VOLUME PRESSAVG GPRESSAVG
ENERGY: 800000 0.0000 0.0000 0.0000 0.0000 -11810.2460 1663.4957 0.0000 0.0000 1365.1602 -8781.5901 235.1061 -10146.7504 -8779.5977 235.1061 -319.1331 -219.5769 28911.5939 -319.1331 -219.5769
ENERGY: 900000 0.0000 0.0000 0.0000 0.0000 -11241.2679 1487.4983 0.0000 0.0000 1561.3971 -8192.3725 268.9017 -9753.7696 -8189.1055 269.9593 -831.7553 -734.3227 29665.0062 4.4714 4.3309
TCL: Running 1000000 steps at 300 kelvin.
TCL: Setting parameter langevinTemp to 300
TCL: Running for 1000000 steps
ETITLE: TS BOND ANGLE DIHED IMPRP ELECT VDW BOUNDARY MISC KINETIC TOTAL TEMP POTENTIAL TOTAL3 TEMPAVG PRESSURE GPRESSURE VOLUME PRESSAVG GPRESSAVG
ENERGY: 900000 0.0000 0.0000 0.0000 0.0000 -11241.2679 1487.4983 0.0000 0.0000 1560.6354 -8193.1342 268.7705 -9753.7696 -8190.2711 268.7705 -825.3922 -735.4273 29665.0062 -825.3922 -735.4273
ENERGY: 1100000 0.0000 0.0000 0.0000 0.0000 -10740.4192 1379.7889 0.0000 0.0000 1768.9500 -7591.6802 304.6462 -9360.6302 -7588.8258 300.1775 -360.5430 -236.4196 30122.8819 3.5049 3.4383
ENERGY: 1300000 0.0000 0.0000 0.0000 0.0000 -10715.4406 1423.7311 0.0000 0.0000 1745.2109 -7546.4986 300.5579 -9291.7094 -7542.5298 299.6454 -55.7699 18.1754 30356.9187 2.6591 2.7276
ENERGY: 1500000 0.0000 0.0000 0.0000 0.0000 -10710.8478 1461.4323 0.0000 0.0000 1744.8538 -7504.5618 300.4964 -9249.4155 -7501.8392 300.3230 257.1283 375.6150 30520.8967 4.3612 4.1158
ENERGY: 1700000 0.0000 0.0000 0.0000 0.0000 -10748.0933 1432.2925 0.0000 0.0000 1763.0487 -7552.7521 303.6299 -9315.8008 -7550.0619 299.8883 160.5373 204.1310 30113.1888 1.4229 1.2777
ENERGY: 1900000 0.0000 0.0000 0.0000 0.0000 -10955.0223 1591.2786 0.0000 0.0000 1732.5630 -7631.1807 298.3797 -9363.7437 -7627.1030 299.3050 1282.7199 1349.9066 30000.9134 3.8248 3.8392
TCL: Exiting due to exit command.
