Info: SIMULATION PARAMETERS:
Info: TIMESTEP               2
Info: NUMBER OF STEPS        0
Info: STEPS PER CYCLE        10
Info: PERIODIC CELL BASIS 1  37.435 0 0
Info: PERIODIC CELL BASIS 2  0 36.032 0
Info: PERIODIC CELL BASIS 3  0 0 31.855
Info: PERIODIC CELL CENTER   0 0 0
Info: WRAPPING WATERS AROUND PERIODIC BOUNDARIES ON OUTPUT.
Info: WRAPPING ALL CLUSTERS AROUND PERIODIC BOUNDARIES ON OUTPUT.
Info: FIRST LDB TIMESTEP     50
Info: LAST LDB TIMESTEP     -1
Info: HOM BACKGROUND SCALING 1
Info: PME BACKGROUND SCALING 1
Info: MIN ATOMS PER PATCH    40
Info: EMPTY PATCH LOAD       40 ATOMS
Info: INITIAL TEMPERATURE    300
Info: CENTER OF MASS MOVING INITIALLY? NO
Info: DIELECTRIC             1
Info: EXCLUDE                SCALED ONE-FOUR
Info: 1-4 ELECTROSTATICS SCALED BY 0.833333
Info: MODIFIED 1-4 VDW PARAMETERS WILL BE USED
Info: DCD FILENAME           mobley_7176290_equil.dcd
Info: DCD FREQUENCY          100000
Info: DCD FIRST STEP         100000
Info: DCD FILE WILL CONTAIN UNIT CELL DATA
Info: XST FILENAME           mobley_7176290_equil.xst
Info: XST FREQUENCY          100000
Info: NO VELOCITY DCD OUTPUT
Info: NO FORCE DCD OUTPUT
Info: OUTPUT FILENAME        mobley_7176290_equil
Info: BINARY OUTPUT FILES WILL BE USED
Info: RESTART FILENAME       mobley_7176290_equil.restart
Info: RESTART FREQUENCY      100000
Info: BINARY RESTART FILES WILL BE USED
Info: CUTOFF                 9
Info: PAIRLIST DISTANCE      11
Info: PAIRLIST SHRINK RATE   0.01
Info: PAIRLIST GROW RATE     0.01
Info: PAIRLIST TRIGGER       0.3
Info: PAIRLISTS PER CYCLE    2
Info: PAIRLISTS ENABLED
Info: MARGIN                 8
Info: HYDROGEN GROUP CUTOFF  2.5
Info: PATCH DIMENSION        21.5
Info: ENERGY OUTPUT STEPS    100000
Info: ENERGY EVALUATION STEPS    100000
Info: OUTPUT ENERGY PRECISION 4
Info: CROSSTERM ENERGY INCLUDED IN DIHEDRAL
Info: TIMING OUTPUT STEPS    1000000
Info: PRESSURE OUTPUT STEPS  100000
Info: FIXED ATOMS ACTIVE
Info: LANGEVIN DYNAMICS ACTIVE
Info: LANGEVIN TEMPERATURE   30
Info: LANGEVIN USING BBK INTEGRATOR
Info: LANGEVIN DAMPING COEFFICIENT IS 1 INVERSE PS
Info: LANGEVIN DYNAMICS APPLIED TO HYDROGENS
Info: LANGEVIN PISTON PRESSURE CONTROL ACTIVE
Info:        TARGET PRESSURE IS 1.01325 BAR
Info:     OSCILLATION PERIOD IS 50 FS
Info:             DECAY TIME IS 25 FS
Info:     PISTON TEMPERATURE IS 300 K
Info:       PRESSURE CONTROL IS GROUP-BASED
Info:    INITIAL STRAIN RATE IS 0 0 0
Info:       CELL FLUCTUATION IS ISOTROPIC
Info: PARTICLE MESH EWALD (PME) ACTIVE
Info: PME TOLERANCE               1e-06
Info: PME EWALD COEFFICIENT       0.348832
Info: PME INTERPOLATION ORDER     4
Info: PME GRID DIMENSIONS         40 40 32
Info: PME MAXIMUM GRID SPACING    1
Info: FULL ELECTROSTATIC EVALUATION FREQUENCY      2
Info: USING VERLET I (r-RESPA) MTS SCHEME.
Info: C1 SPLITTING OF LONG RANGE ELECTROSTATICS
Info: PLACING ATOMS IN PATCHES BY HYDROGEN GROUPS
Info: RIGID BONDS TO HYDROGEN : ALL
Info:         ERROR TOLERANCE : 1e-08
Info:          MAX ITERATIONS : 100
Info: RIGID WATER USING SETTLE ALGORITHM
Info: RANDOM NUMBER SEED     1744090937
Info: USE HYDROGEN BONDS?    NO
Info: Using AMBER format force field!
Info: AMBER PARM FILE        mobley_7176290.prmtop
Info: COORDINATE PDB         mobley_7176290.pdb
Info: Exclusions will be read from PARM file!
Info: SCNB (VDW SCALING)     2
Info: USING ARITHMETIC MEAN TO COMBINE L-J SIGMA PARAMETERS
Info: BINARY COORDINATES     mobley_7176290_min.coor
Info: SUMMARY OF PARAMETERS:
Info: 8 BONDS
Info: 7 ANGLES
Info:   7 HARMONIC
Info:   0 COSINE-BASED
Info: 4 DIHEDRAL
Info: 0 IMPROPER
Info: 0 CROSSTERM
Info: 0 VDW
Info: 28 VDW_PAIRS
Info: 0 NBTHOLE_PAIRS
Info: STRUCTURE SUMMARY:
Info: 2952 ATOMS
Info: 2952 BONDS
Info: 22 ANGLES
Info: 36 DIHEDRALS
Info: 0 IMPROPERS
Info: 0 CROSSTERMS
Info: 3001 EXCLUSIONS
Info: 15 FIXED ATOMS
Info: 2942 RIGID BONDS
Info: 5 RIGID BONDS BETWEEN FIXED ATOMS
Info: 5874 DEGREES OF FREEDOM
Info: 989 HYDROGEN GROUPS
Info: 3 ATOMS IN LARGEST HYDROGEN GROUP
Info: 989 MIGRATION GROUPS
Info: 3 ATOMS IN LARGEST MIGRATION GROUP
Info: 10 HYDROGEN GROUPS WITH ALL ATOMS FIXED
Info: TOTAL MASS = 17776.8 amu
Info: TOTAL CHARGE = -0.000200011 e
Info: MASS DENSITY = 0.687018 g/cm^3
Info: ATOM DENSITY = 0.0687025 atoms/A^3
Info: ADDED 0 IMPLICIT EXCLUSIONS
Info: NONBONDED TABLE R-SQUARED SPACING: 0.0625
Info: NONBONDED TABLE SIZE: 705 POINTS
Info: REMOVING COM VELOCITY -0.00453705 0.0659706 0.0305663
TCL: Running for 100000 steps
ETITLE: TS BOND ANGLE DIHED IMPRP ELECT VDW BOUNDARY MISC KINETIC TOTAL TEMP POTENTIAL TOTAL3 TEMPAVG PRESSURE GPRESSURE VOLUME PRESSAVG GPRESSAVG
ENERGY: 0 0.0000 0.0000 0.0000 0.0000 -13704.5944 2361.9699 0.0000 0.0000 1763.7570 -9578.8675 302.2005 -11342.6245 -9578.5296 302.2005 119.1412 145.8871 42967.8690 119.1412 145.8871
ENERGY: 100000 0.0000 0.0000 0.0000 0.0000 -14204.3854 2414.9415 0.0000 0.0000 176.5001 -11612.9438 30.2414 -11789.4438 -11612.5358 30.8479 -715.0984 -627.5917 29555.4167 3.8699 3.9283
TCL: Running 100000 steps at 60 kelvin.
TCL: Setting parameter langevinTemp to 60
TCL: Running for 100000 steps
ETITLE: TS BOND ANGLE DIHED IMPRP ELECT VDW BOUNDARY MISC KINETIC TOTAL TEMP POTENTIAL TOTAL3 TEMPAVG PRESSURE GPRESSURE VOLUME PRESSAVG GPRESSAVG
ENERGY: 100000 0.0000 0.0000 0.0000 0.0000 -14204.3854 2414.9415 0.0000 0.0000 176.4111 -11613.0327 30.2261 -11789.4438 -11612.6016 30.2261 -693.8371 -627.7457 29555.4167 -693.8371 -627.7457
ENERGY: 200000 0.0000 0.0000 0.0000 0.0000 -14230.3930 2481.7667 0.0000 0.0000 335.4722 -11413.1541 57.4795 -11748.6262 -11412.0993 59.9757 366.7742 421.3712 28520.7411 4.0986 4.0900
TCL: Running 100000 steps at 90 kelvin.
TCL: Setting parameter langevinTemp to 90
TCL: Running for 100000 steps
ETITLE: TS BOND ANGLE DIHED IMPRP ELECT VDW BOUNDARY MISC KINETIC TOTAL TEMP POTENTIAL TOTAL3 TEMPAVG PRESSURE GPRESSURE VOLUME PRESSAVG GPRESSAVG
ENERGY: 200000 0.0000 0.0000 0.0000 0.0000 -14230.3930 2481.7667 0.0000 0.0000 335.2929 -11413.3334 57.4488 -11748.6262 -11412.7764 57.4488 365.8582 421.2465 28520.7411 365.8582 421.2465
ENERGY: 300000 0.0000 0.0000 0.0000 0.0000 -13983.3604 2366.6076 0.0000 0.0000 525.8092 -11090.9436 90.0917 -11616.7528 -11090.1064 90.0345 -267.2681 -207.9330 28919.9538 4.8089 4.8176
TCL: Running 100000 steps at 120 kelvin.
TCL: Setting parameter langevinTemp to 120
TCL: Running for 100000 steps
ETITLE: TS BOND ANGLE DIHED IMPRP ELECT VDW BOUNDARY MISC KINETIC TOTAL TEMP POTENTIAL TOTAL3 TEMPAVG PRESSURE GPRESSURE VOLUME PRESSAVG GPRESSAVG
ENERGY: 300000 0.0000 0.0000 0.0000 0.0000 -13983.3604 2366.6076 0.0000 0.0000 525.5520 -11091.2008 90.0476 -11616.7528 -11090.3689 90.0476 -258.7646 -208.1264 28919.9538 -258.7646 -208.1264
ENERGY: 400000 0.0000 0.0000 0.0000 0.0000 -13900.8621 2386.5153 0.0000 0.0000 686.4878 -10827.8591 117.6222 -11514.3468 -10825.4033 119.8666 529.4124 569.3534 28669.0537 4.6746 4.7141
TCL: Running 100000 steps at 150 kelvin.
TCL: Setting parameter langevinTemp to 150
TCL: Running for 100000 steps
ETITLE: TS BOND ANGLE DIHED IMPRP ELECT VDW BOUNDARY MISC KINETIC TOTAL TEMP POTENTIAL TOTAL3 TEMPAVG PRESSURE GPRESSURE VOLUME PRESSAVG GPRESSAVG
ENERGY: 400000 0.0000 0.0000 0.0000 0.0000 -13900.8621 2386.5153 0.0000 0.0000 686.1444 -10828.2024 117.5634 -11514.3468 -10826.9870 117.5634 516.0687 569.8136 28669.0537 516.0687 569.8136
ENERGY: 500000 0.0000 0.0000 0.0000 0.0000 -13574.1281 2242.8217 0.0000 0.0000 874.2660 -10457.0404 149.7959 -11331.3064 -10453.6457 150.2540 -157.2508 -107.3911 29107.8239 4.7374 4.6210
TCL: Running 100000 steps at 180 kelvin.
TCL: Setting parameter langevinTemp to 180
TCL: Running for 100000 steps
ETITLE: TS BOND ANGLE DIHED IMPRP ELECT VDW BOUNDARY MISC KINETIC TOTAL TEMP POTENTIAL TOTAL3 TEMPAVG PRESSURE GPRESSURE VOLUME PRESSAVG GPRESSAVG
ENERGY: 500000 0.0000 0.0000 0.0000 0.0000 -13574.1281 2242.8217 0.0000 0.0000 873.8240 -10457.4824 149.7202 -11331.3064 -10455.7685 149.7202 -168.9745 -107.5439 29107.8239 -168.9745 -107.5439
ENERGY: 600000 0.0000 0.0000 0.0000 0.0000 -13304.4449 2233.5516 0.0000 0.0000 1065.0158 -10005.8774 182.4788 -11070.8932 -10003.4816 179.6537 767.9222 775.9038 29039.9332 2.8194 2.7808
TCL: Running 100000 steps at 210 kelvin.
TCL: Setting parameter langevinTemp to 210
TCL: Running for 100000 steps
ETITLE: TS BOND ANGLE DIHED IMPRP ELECT VDW BOUNDARY MISC KINETIC TOTAL TEMP POTENTIAL TOTAL3 TEMPAVG PRESSURE GPRESSURE VOLUME PRESSAVG GPRESSAVG
ENERGY: 600000 0.0000 0.0000 0.0000 0.0000 -13304.4449 2233.5516 0.0000 0.0000 1064.4760 -10006.4172 182.3863 -11070.8932 -10004.7167 182.3863 715.8033 776.4333 29039.9332 715.8033 776.4333
ENERGY: 700000 0.0000 0.0000 0.0000 0.0000 -12466.6359 1880.6783 0.0000 0.0000 1215.6658 -9370.2917 208.2911 -10585.9576 -9368.8685 209.8909 50.7110 98.3943 28517.7755 3.6719 3.6523
TCL: Running 100000 steps at 240 kelvin.
TCL: Setting parameter langevinTemp to 240
TCL: Running for 100000 steps
ETITLE: TS BOND ANGLE DIHED IMPRP ELECT VDW BOUNDARY MISC KINETIC TOTAL TEMP POTENTIAL TOTAL3 TEMPAVG PRESSURE GPRESSURE VOLUME PRESSAVG GPRESSAVG
ENERGY: 700000 0.0000 0.0000 0.0000 0.0000 -12466.6359 1880.6783 0.0000 0.0000 1215.0252 -9370.9324 208.1813 -10585.9576 -9368.7790 208.1813 5.2190 96.2534 28517.7755 5.2190 96.2534
ENERGY: 800000 0.0000 0.0000 0.0000 0.0000 -11909.2054 1745.7825 0.0000 0.0000 1405.6484 -8757.7745 240.8425 -10163.4229 -8758.6604 239.2874 -22.6040 57.8226 29499.9793 3.4097 3.4845
TCL: Running 100000 steps at 270 kelvin.
TCL: Setting parameter langevinTemp to 270
TCL: Running for 100000 steps
ETITLE: TS BOND ANGLE DIHED IMPRP ELECT VDW BOUNDARY MISC KINETIC TOTAL TEMP POTENTIAL TOTAL3 TEMPAVG PRESSURE GPRESSURE VOLUME PRESSAVG GPRESSAVG
ENERGY: 800000 0.0000 0.0000 0.0000 0.0000 -11909.2054 1745.7825 0.0000 0.0000 1404.9462 -8758.4767 240.7222 -10163.4229 -8755.9470 240.7222 -29.1388 54.0799 29499.9793 -29.1388 54.0799
ENERGY: 900000 0.0000 0.0000 0.0000 0.0000 -11149.4019 1485.8610 0.0000 0.0000 1553.1931 -8110.3477 266.1227 -9663.5409 -8106.6357 270.3645 -572.7205 -468.1944 29800.1610 3.3603 3.4343
TCL: Running 1000000 steps at 300 kelvin.
TCL: Setting parameter langevinTemp to 300
TCL: Running for 1000000 steps
ETITLE: TS BOND ANGLE DIHED IMPRP ELECT VDW BOUNDARY MISC KINETIC TOTAL TEMP POTENTIAL TOTAL3 TEMPAVG PRESSURE GPRESSURE VOLUME PRESSAVG GPRESSAVG
ENERGY: 900000 0.0000 0.0000 0.0000 0.0000 -11149.4019 1485.8610 0.0000 0.0000 1552.3938 -8111.1470 265.9857 -9663.5409 -8108.4655 265.9857 -551.0536 -468.0445 29800.1610 -551.0536 -468.0445
ENERGY: 1100000 0.0000 0.0000 0.0000 0.0000 -10904.0480 1495.0494 0.0000 0.0000 1841.5655 -7567.4331 315.5322 -9408.9986 -7562.7625 300.5363 473.3781 554.3394 30071.9638 3.0610 3.0101
ENERGY: 1300000 0.0000 0.0000 0.0000 0.0000 -10613.9483 1326.3230 0.0000 0.0000 1801.5967 -7486.0286 308.6839 -9287.6253 -7482.5915 299.9828 -960.4802 -952.8928 30936.3463 4.0158 3.9725
ENERGY: 1500000 0.0000 0.0000 0.0000 0.0000 -10684.8024 1401.6036 0.0000 0.0000 1758.3141 -7524.8848 301.2679 -9283.1988 -7521.2470 299.8208 -255.9529 -224.9371 30827.2145 2.7931 2.8003
ENERGY: 1700000 0.0000 0.0000 0.0000 0.0000 -10709.5003 1391.3087 0.0000 0.0000 1725.8216 -7592.3701 295.7007 -9318.1917 -7588.4978 300.0247 -499.2352 -405.2398 30725.4730 2.2974 2.3530
ENERGY: 1900000 0.0000 0.0000 0.0000 0.0000 -10716.7798 1407.7659 0.0000 0.0000 1773.4164 -7535.5975 303.8555 -9309.0139 -7531.1480 299.8851 -349.2686 -267.5983 30708.3525 2.9239 2.8013
TCL: Exiting due to exit command.
