Info: SIMULATION PARAMETERS:
Info: TIMESTEP               2
Info: NUMBER OF STEPS        0
Info: STEPS PER CYCLE        10
Info: PERIODIC CELL BASIS 1  37.435 0 0
Info: PERIODIC CELL BASIS 2  0 35.779 0
Info: PERIODIC CELL BASIS 3  0 0 31.855
Info: PERIODIC CELL CENTER   0 0 0
Info: WRAPPING WATERS AROUND PERIODIC BOUNDARIES ON OUTPUT.
Info: WRAPPING ALL CLUSTERS AROUND PERIODIC BOUNDARIES ON OUTPUT.
Info: FIRST LDB TIMESTEP     50
Info: LAST LDB TIMESTEP     -1
Info: HOM BACKGROUND SCALING 1
Info: PME BACKGROUND SCALING 1
Info: MIN ATOMS PER PATCH    40
Info: EMPTY PATCH LOAD       40 ATOMS
Info: INITIAL TEMPERATURE    300
Info: CENTER OF MASS MOVING INITIALLY? NO
Info: DIELECTRIC             1
Info: EXCLUDE                SCALED ONE-FOUR
Info: 1-4 ELECTROSTATICS SCALED BY 0.833333
Info: MODIFIED 1-4 VDW PARAMETERS WILL BE USED
Info: DCD FILENAME           mobley_3144334_equil.dcd
Info: DCD FREQUENCY          100000
Info: DCD FIRST STEP         100000
Info: DCD FILE WILL CONTAIN UNIT CELL DATA
Info: XST FILENAME           mobley_3144334_equil.xst
Info: XST FREQUENCY          100000
Info: NO VELOCITY DCD OUTPUT
Info: NO FORCE DCD OUTPUT
Info: OUTPUT FILENAME        mobley_3144334_equil
Info: BINARY OUTPUT FILES WILL BE USED
Info: RESTART FILENAME       mobley_3144334_equil.restart
Info: RESTART FREQUENCY      100000
Info: BINARY RESTART FILES WILL BE USED
Info: CUTOFF                 9
Info: PAIRLIST DISTANCE      11
Info: PAIRLIST SHRINK RATE   0.01
Info: PAIRLIST GROW RATE     0.01
Info: PAIRLIST TRIGGER       0.3
Info: PAIRLISTS PER CYCLE    2
Info: PAIRLISTS ENABLED
Info: MARGIN                 8
Info: HYDROGEN GROUP CUTOFF  2.5
Info: PATCH DIMENSION        21.5
Info: ENERGY OUTPUT STEPS    100000
Info: ENERGY EVALUATION STEPS    100000
Info: OUTPUT ENERGY PRECISION 4
Info: CROSSTERM ENERGY INCLUDED IN DIHEDRAL
Info: TIMING OUTPUT STEPS    1000000
Info: PRESSURE OUTPUT STEPS  100000
Info: FIXED ATOMS ACTIVE
Info: LANGEVIN DYNAMICS ACTIVE
Info: LANGEVIN TEMPERATURE   30
Info: LANGEVIN USING BBK INTEGRATOR
Info: LANGEVIN DAMPING COEFFICIENT IS 1 INVERSE PS
Info: LANGEVIN DYNAMICS APPLIED TO HYDROGENS
Info: LANGEVIN PISTON PRESSURE CONTROL ACTIVE
Info:        TARGET PRESSURE IS 1.01325 BAR
Info:     OSCILLATION PERIOD IS 50 FS
Info:             DECAY TIME IS 25 FS
Info:     PISTON TEMPERATURE IS 300 K
Info:       PRESSURE CONTROL IS GROUP-BASED
Info:    INITIAL STRAIN RATE IS 0 0 0
Info:       CELL FLUCTUATION IS ISOTROPIC
Info: PARTICLE MESH EWALD (PME) ACTIVE
Info: PME TOLERANCE               1e-06
Info: PME EWALD COEFFICIENT       0.348832
Info: PME INTERPOLATION ORDER     4
Info: PME GRID DIMENSIONS         40 36 32
Info: PME MAXIMUM GRID SPACING    1
Info: FULL ELECTROSTATIC EVALUATION FREQUENCY      2
Info: USING VERLET I (r-RESPA) MTS SCHEME.
Info: C1 SPLITTING OF LONG RANGE ELECTROSTATICS
Info: PLACING ATOMS IN PATCHES BY HYDROGEN GROUPS
Info: RIGID BONDS TO HYDROGEN : ALL
Info:         ERROR TOLERANCE : 1e-08
Info:          MAX ITERATIONS : 100
Info: RIGID WATER USING SETTLE ALGORITHM
Info: RANDOM NUMBER SEED     1743743050
Info: USE HYDROGEN BONDS?    NO
Info: Using AMBER format force field!
Info: AMBER PARM FILE        mobley_3144334.prmtop
Info: COORDINATE PDB         mobley_3144334.pdb
Info: Exclusions will be read from PARM file!
Info: SCNB (VDW SCALING)     2
Info: USING ARITHMETIC MEAN TO COMBINE L-J SIGMA PARAMETERS
Info: BINARY COORDINATES     mobley_3144334_min.coor
Info: SUMMARY OF PARAMETERS:
Info: 8 BONDS
Info: 7 ANGLES
Info:   7 HARMONIC
Info:   0 COSINE-BASED
Info: 4 DIHEDRAL
Info: 0 IMPROPER
Info: 0 CROSSTERM
Info: 0 VDW
Info: 28 VDW_PAIRS
Info: 0 NBTHOLE_PAIRS
Info: STRUCTURE SUMMARY:
Info: 2941 ATOMS
Info: 2941 BONDS
Info: 31 ANGLES
Info: 44 DIHEDRALS
Info: 0 IMPROPERS
Info: 0 CROSSTERMS
Info: 3007 EXCLUSIONS
Info: 19 FIXED ATOMS
Info: 2932 RIGID BONDS
Info: 10 RIGID BONDS BETWEEN FIXED ATOMS
Info: 5844 DEGREES OF FREEDOM
Info: 983 HYDROGEN GROUPS
Info: 4 ATOMS IN LARGEST HYDROGEN GROUP
Info: 983 MIGRATION GROUPS
Info: 4 ATOMS IN LARGEST MIGRATION GROUP
Info: 9 HYDROGEN GROUPS WITH ALL ATOMS FIXED
Info: TOTAL MASS = 17669.7 amu
Info: TOTAL CHARGE = 0.000200007 e
Info: MASS DENSITY = 0.687711 g/cm^3
Info: ATOM DENSITY = 0.0689305 atoms/A^3
Info: ADDED 0 IMPLICIT EXCLUSIONS
Info: NONBONDED TABLE R-SQUARED SPACING: 0.0625
Info: NONBONDED TABLE SIZE: 705 POINTS
Info: REMOVING COM VELOCITY 0.0696502 -0.168242 0.0644892
TCL: Running for 100000 steps
ETITLE: TS BOND ANGLE DIHED IMPRP ELECT VDW BOUNDARY MISC KINETIC TOTAL TEMP POTENTIAL TOTAL3 TEMPAVG PRESSURE GPRESSURE VOLUME PRESSAVG GPRESSAVG
ENERGY: 0 0.0000 0.0000 0.0000 0.0000 -13639.9876 2377.7383 0.0000 0.0000 1778.8926 -9483.3567 306.3585 -11262.2493 -9483.0073 306.3585 251.0028 279.1562 42666.1686 251.0028 279.1562
ENERGY: 100000 0.0000 0.0000 0.0000 0.0000 -14149.5203 2433.4753 0.0000 0.0000 169.6349 -11546.4100 29.2143 -11716.0449 -11546.2250 30.9106 -280.2520 -232.6740 29022.3616 3.3925 3.4065
TCL: Running 100000 steps at 60 kelvin.
TCL: Setting parameter langevinTemp to 60
TCL: Running for 100000 steps
ETITLE: TS BOND ANGLE DIHED IMPRP ELECT VDW BOUNDARY MISC KINETIC TOTAL TEMP POTENTIAL TOTAL3 TEMPAVG PRESSURE GPRESSURE VOLUME PRESSAVG GPRESSAVG
ENERGY: 100000 0.0000 0.0000 0.0000 0.0000 -14149.5203 2433.4753 0.0000 0.0000 169.5467 -11546.4982 29.1991 -11716.0449 -11546.1468 29.1991 -282.5750 -232.7942 29022.3616 -282.5750 -232.7942
ENERGY: 200000 0.0000 0.0000 0.0000 0.0000 -14022.6685 2401.4244 0.0000 0.0000 339.4597 -11281.7843 58.4613 -11621.2440 -11280.7176 60.0085 -133.8607 -50.7717 28913.2242 2.8952 2.8542
TCL: Running 100000 steps at 90 kelvin.
TCL: Setting parameter langevinTemp to 90
TCL: Running for 100000 steps
ETITLE: TS BOND ANGLE DIHED IMPRP ELECT VDW BOUNDARY MISC KINETIC TOTAL TEMP POTENTIAL TOTAL3 TEMPAVG PRESSURE GPRESSURE VOLUME PRESSAVG GPRESSAVG
ENERGY: 200000 0.0000 0.0000 0.0000 0.0000 -14022.6685 2401.4244 0.0000 0.0000 339.2865 -11281.9575 58.4315 -11621.2440 -11281.3684 58.4315 -110.7917 -50.7491 28913.2242 -110.7917 -50.7491
ENERGY: 300000 0.0000 0.0000 0.0000 0.0000 -13897.8150 2349.2918 0.0000 0.0000 510.5534 -11037.9698 87.9268 -11548.5232 -11037.0545 90.0089 -125.4361 -57.8943 28668.8870 3.2224 3.2540
TCL: Running 100000 steps at 120 kelvin.
TCL: Setting parameter langevinTemp to 120
TCL: Running for 100000 steps
ETITLE: TS BOND ANGLE DIHED IMPRP ELECT VDW BOUNDARY MISC KINETIC TOTAL TEMP POTENTIAL TOTAL3 TEMPAVG PRESSURE GPRESSURE VOLUME PRESSAVG GPRESSAVG
ENERGY: 300000 0.0000 0.0000 0.0000 0.0000 -13897.8150 2349.2918 0.0000 0.0000 510.2958 -11038.2274 87.8825 -11548.5232 -11037.2859 87.8825 -116.9586 -58.2646 28668.8870 -116.9586 -58.2646
ENERGY: 400000 0.0000 0.0000 0.0000 0.0000 -13729.2444 2261.5439 0.0000 0.0000 691.1241 -10776.5765 119.0245 -11467.7005 -10774.6490 119.9374 -785.8297 -703.7693 28969.4447 3.9879 3.7797
TCL: Running 100000 steps at 150 kelvin.
TCL: Setting parameter langevinTemp to 150
TCL: Running for 100000 steps
ETITLE: TS BOND ANGLE DIHED IMPRP ELECT VDW BOUNDARY MISC KINETIC TOTAL TEMP POTENTIAL TOTAL3 TEMPAVG PRESSURE GPRESSURE VOLUME PRESSAVG GPRESSAVG
ENERGY: 400000 0.0000 0.0000 0.0000 0.0000 -13729.2444 2261.5439 0.0000 0.0000 690.7863 -10776.9142 118.9663 -11467.7005 -10775.5007 118.9663 -766.8553 -703.7711 28969.4447 -766.8553 -703.7711
ENERGY: 500000 0.0000 0.0000 0.0000 0.0000 -13540.1082 2279.4026 0.0000 0.0000 880.0394 -10380.6662 151.5592 -11260.7056 -10378.7652 149.5775 249.4186 333.5279 28622.0398 2.8171 2.7345
TCL: Running 100000 steps at 180 kelvin.
TCL: Setting parameter langevinTemp to 180
TCL: Running for 100000 steps
ETITLE: TS BOND ANGLE DIHED IMPRP ELECT VDW BOUNDARY MISC KINETIC TOTAL TEMP POTENTIAL TOTAL3 TEMPAVG PRESSURE GPRESSURE VOLUME PRESSAVG GPRESSAVG
ENERGY: 500000 0.0000 0.0000 0.0000 0.0000 -13540.1082 2279.4026 0.0000 0.0000 879.6017 -10381.1038 151.4838 -11260.7056 -10379.5964 151.4838 283.3911 334.5787 28622.0398 283.3911 334.5787
ENERGY: 600000 0.0000 0.0000 0.0000 0.0000 -13151.5605 2138.4291 0.0000 0.0000 1054.3842 -9958.7471 181.5846 -11013.1313 -9957.2830 180.0256 137.5649 188.1414 28759.5583 4.3634 4.2980
TCL: Running 100000 steps at 210 kelvin.
TCL: Setting parameter langevinTemp to 210
TCL: Running for 100000 steps
ETITLE: TS BOND ANGLE DIHED IMPRP ELECT VDW BOUNDARY MISC KINETIC TOTAL TEMP POTENTIAL TOTAL3 TEMPAVG PRESSURE GPRESSURE VOLUME PRESSAVG GPRESSAVG
ENERGY: 600000 0.0000 0.0000 0.0000 0.0000 -13151.5605 2138.4291 0.0000 0.0000 1053.8817 -9959.2496 181.4981 -11013.1313 -9957.2425 181.4981 126.4494 186.5152 28759.5583 126.4494 186.5152
ENERGY: 700000 0.0000 0.0000 0.0000 0.0000 -12434.8687 1867.7433 0.0000 0.0000 1229.4237 -9337.7017 211.7297 -10567.1254 -9334.9709 210.0782 -108.0133 -43.9089 28328.2686 4.3751 4.1599
TCL: Running 100000 steps at 240 kelvin.
TCL: Setting parameter langevinTemp to 240
TCL: Running for 100000 steps
ETITLE: TS BOND ANGLE DIHED IMPRP ELECT VDW BOUNDARY MISC KINETIC TOTAL TEMP POTENTIAL TOTAL3 TEMPAVG PRESSURE GPRESSURE VOLUME PRESSAVG GPRESSAVG
ENERGY: 700000 0.0000 0.0000 0.0000 0.0000 -12434.8687 1867.7433 0.0000 0.0000 1228.8147 -9338.3107 211.6248 -10567.1254 -9335.5425 211.6248 -123.8972 -43.1594 28328.2686 -123.8972 -43.1594
ENERGY: 800000 0.0000 0.0000 0.0000 0.0000 -11594.6115 1572.4997 0.0000 0.0000 1415.1164 -8606.9954 243.7094 -10022.1118 -8604.2184 239.5582 -968.0651 -793.1119 29065.5245 3.6851 3.6406
TCL: Running 100000 steps at 270 kelvin.
TCL: Setting parameter langevinTemp to 270
TCL: Running for 100000 steps
ETITLE: TS BOND ANGLE DIHED IMPRP ELECT VDW BOUNDARY MISC KINETIC TOTAL TEMP POTENTIAL TOTAL3 TEMPAVG PRESSURE GPRESSURE VOLUME PRESSAVG GPRESSAVG
ENERGY: 800000 0.0000 0.0000 0.0000 0.0000 -11594.6115 1572.4997 0.0000 0.0000 1414.4204 -8607.6914 243.5896 -10022.1118 -8605.4552 243.5896 -891.4406 -793.5103 29065.5245 -891.4406 -793.5103
ENERGY: 900000 0.0000 0.0000 0.0000 0.0000 -11146.9156 1475.2307 0.0000 0.0000 1537.4302 -8134.2547 264.7742 -9671.6849 -8131.2095 269.9089 -995.8252 -873.7240 29917.1404 3.7771 3.6771
TCL: Running 1000000 steps at 300 kelvin.
TCL: Setting parameter langevinTemp to 300
TCL: Running for 1000000 steps
ETITLE: TS BOND ANGLE DIHED IMPRP ELECT VDW BOUNDARY MISC KINETIC TOTAL TEMP POTENTIAL TOTAL3 TEMPAVG PRESSURE GPRESSURE VOLUME PRESSAVG GPRESSAVG
ENERGY: 900000 0.0000 0.0000 0.0000 0.0000 -11146.9156 1475.2307 0.0000 0.0000 1536.6432 -8135.0418 264.6386 -9671.6849 -8132.3949 264.6386 -964.6539 -875.2659 29917.1404 -964.6539 -875.2659
ENERGY: 1100000 0.0000 0.0000 0.0000 0.0000 -10733.5004 1485.2579 0.0000 0.0000 1766.4834 -7481.7591 304.2214 -9248.2425 -7477.0265 299.9499 596.4104 603.2407 30391.8813 3.6918 3.4231
ENERGY: 1300000 0.0000 0.0000 0.0000 0.0000 -10574.6869 1280.6289 0.0000 0.0000 1726.4518 -7567.6063 297.3272 -9294.0580 -7566.9337 300.1129 -1044.9407 -933.6692 29813.6369 2.2703 2.2461
ENERGY: 1500000 0.0000 0.0000 0.0000 0.0000 -10575.9914 1311.4965 0.0000 0.0000 1726.7012 -7537.7936 297.3701 -9264.4948 -7535.3869 300.6650 -1200.1969 -1062.1763 30734.8020 3.0180 2.9334
ENERGY: 1700000 0.0000 0.0000 0.0000 0.0000 -10587.0585 1370.9203 0.0000 0.0000 1717.4238 -7498.7144 295.7724 -9216.1382 -7495.9391 299.7240 -639.5205 -532.2266 30849.9033 2.9285 2.8120
ENERGY: 1900000 0.0000 0.0000 0.0000 0.0000 -10546.8615 1321.6411 0.0000 0.0000 1683.7952 -7541.4252 289.9809 -9225.2204 -7537.4794 300.6212 -855.4545 -804.7675 30711.4211 3.2555 3.1997
TCL: Exiting due to exit command.
