Info: SIMULATION PARAMETERS:
Info: TIMESTEP               2
Info: NUMBER OF STEPS        0
Info: STEPS PER CYCLE        10
Info: PERIODIC CELL BASIS 1  37.435 0 0
Info: PERIODIC CELL BASIS 2  0 34.26 0
Info: PERIODIC CELL BASIS 3  0 0 34.229
Info: PERIODIC CELL CENTER   0 0 0
Info: WRAPPING WATERS AROUND PERIODIC BOUNDARIES ON OUTPUT.
Info: WRAPPING ALL CLUSTERS AROUND PERIODIC BOUNDARIES ON OUTPUT.
Info: FIRST LDB TIMESTEP     50
Info: LAST LDB TIMESTEP     -1
Info: HOM BACKGROUND SCALING 1
Info: PME BACKGROUND SCALING 1
Info: MIN ATOMS PER PATCH    40
Info: EMPTY PATCH LOAD       40 ATOMS
Info: INITIAL TEMPERATURE    300
Info: CENTER OF MASS MOVING INITIALLY? NO
Info: DIELECTRIC             1
Info: EXCLUDE                SCALED ONE-FOUR
Info: 1-4 ELECTROSTATICS SCALED BY 0.833333
Info: MODIFIED 1-4 VDW PARAMETERS WILL BE USED
Info: DCD FILENAME           mobley_186894_equil.dcd
Info: DCD FREQUENCY          100000
Info: DCD FIRST STEP         100000
Info: DCD FILE WILL CONTAIN UNIT CELL DATA
Info: XST FILENAME           mobley_186894_equil.xst
Info: XST FREQUENCY          100000
Info: NO VELOCITY DCD OUTPUT
Info: NO FORCE DCD OUTPUT
Info: OUTPUT FILENAME        mobley_186894_equil
Info: BINARY OUTPUT FILES WILL BE USED
Info: RESTART FILENAME       mobley_186894_equil.restart
Info: RESTART FREQUENCY      100000
Info: BINARY RESTART FILES WILL BE USED
Info: CUTOFF                 9
Info: PAIRLIST DISTANCE      11
Info: PAIRLIST SHRINK RATE   0.01
Info: PAIRLIST GROW RATE     0.01
Info: PAIRLIST TRIGGER       0.3
Info: PAIRLISTS PER CYCLE    2
Info: PAIRLISTS ENABLED
Info: MARGIN                 8
Info: HYDROGEN GROUP CUTOFF  2.5
Info: PATCH DIMENSION        21.5
Info: ENERGY OUTPUT STEPS    100000
Info: ENERGY EVALUATION STEPS    100000
Info: OUTPUT ENERGY PRECISION 4
Info: CROSSTERM ENERGY INCLUDED IN DIHEDRAL
Info: TIMING OUTPUT STEPS    1000000
Info: PRESSURE OUTPUT STEPS  100000
Info: FIXED ATOMS ACTIVE
Info: LANGEVIN DYNAMICS ACTIVE
Info: LANGEVIN TEMPERATURE   30
Info: LANGEVIN USING BBK INTEGRATOR
Info: LANGEVIN DAMPING COEFFICIENT IS 1 INVERSE PS
Info: LANGEVIN DYNAMICS APPLIED TO HYDROGENS
Info: LANGEVIN PISTON PRESSURE CONTROL ACTIVE
Info:        TARGET PRESSURE IS 1.01325 BAR
Info:     OSCILLATION PERIOD IS 50 FS
Info:             DECAY TIME IS 25 FS
Info:     PISTON TEMPERATURE IS 300 K
Info:       PRESSURE CONTROL IS GROUP-BASED
Info:    INITIAL STRAIN RATE IS 0 0 0
Info:       CELL FLUCTUATION IS ISOTROPIC
Info: PARTICLE MESH EWALD (PME) ACTIVE
Info: PME TOLERANCE               1e-06
Info: PME EWALD COEFFICIENT       0.348832
Info: PME INTERPOLATION ORDER     4
Info: PME GRID DIMENSIONS         40 36 36
Info: PME MAXIMUM GRID SPACING    1
Info: FULL ELECTROSTATIC EVALUATION FREQUENCY      2
Info: USING VERLET I (r-RESPA) MTS SCHEME.
Info: C1 SPLITTING OF LONG RANGE ELECTROSTATICS
Info: PLACING ATOMS IN PATCHES BY HYDROGEN GROUPS
Info: RIGID BONDS TO HYDROGEN : ALL
Info:         ERROR TOLERANCE : 1e-08
Info:          MAX ITERATIONS : 100
Info: RIGID WATER USING SETTLE ALGORITHM
Info: RANDOM NUMBER SEED     1743900935
Info: USE HYDROGEN BONDS?    NO
Info: Using AMBER format force field!
Info: AMBER PARM FILE        mobley_186894.prmtop
Info: COORDINATE PDB         mobley_186894.pdb
Info: Exclusions will be read from PARM file!
Info: SCNB (VDW SCALING)     2
Info: USING ARITHMETIC MEAN TO COMBINE L-J SIGMA PARAMETERS
Info: BINARY COORDINATES     mobley_186894_min.coor
Info: SUMMARY OF PARAMETERS:
Info: 7 BONDS
Info: 8 ANGLES
Info: 4 DIHEDRAL
Info: 0 IMPROPER
Info: 0 CROSSTERM
Info: 0 VDW
Info: 28 VDW_PAIRS
Info: 0 NBTHOLE_PAIRS
Info: STRUCTURE SUMMARY:
Info: 2997 ATOMS
Info: 2996 BONDS
Info: 19 ANGLES
Info: 21 DIHEDRALS
Info: 0 IMPROPERS
Info: 0 CROSSTERMS
Info: 3036 EXCLUSIONS
Info: 12 FIXED ATOMS
Info: 2993 RIGID BONDS
Info: 8 RIGID BONDS BETWEEN FIXED ATOMS
Info: 5970 DEGREES OF FREEDOM
Info: 999 HYDROGEN GROUPS
Info: 4 ATOMS IN LARGEST HYDROGEN GROUP
Info: 999 MIGRATION GROUPS
Info: 4 ATOMS IN LARGEST MIGRATION GROUP
Info: 4 HYDROGEN GROUPS WITH ALL ATOMS FIXED
Info: TOTAL MASS = 18002.1 amu
Info: TOTAL CHARGE = 0.000199965 e
Info: MASS DENSITY = 0.680961 g/cm^3
Info: ATOM DENSITY = 0.0682696 atoms/A^3
Info: ADDED 0 IMPLICIT EXCLUSIONS
Info: NONBONDED TABLE R-SQUARED SPACING: 0.0625
Info: NONBONDED TABLE SIZE: 705 POINTS
Info: REMOVING COM VELOCITY 0.238617 -0.0369682 -0.0109242
TCL: Running for 100000 steps
ETITLE: TS BOND ANGLE DIHED IMPRP ELECT VDW BOUNDARY MISC KINETIC TOTAL TEMP POTENTIAL TOTAL3 TEMPAVG PRESSURE GPRESSURE VOLUME PRESSAVG GPRESSAVG
ENERGY: 0 0.0000 0.0000 0.0000 0.0000 -13918.6640 2427.5215 0.0000 0.0000 1756.7084 -9734.4341 296.1527 -11491.1424 -9734.0946 296.1527 119.9596 158.5662 43899.4832 119.9596 158.5662
ENERGY: 100000 0.0000 0.0000 0.0000 0.0000 -14414.5265 2445.0299 0.0000 0.0000 177.3174 -11792.1792 29.8929 -11969.4966 -11791.5519 30.9069 -382.1575 -347.9450 28830.0923 4.8118 4.7936
TCL: Running 100000 steps at 60 kelvin.
TCL: Setting parameter langevinTemp to 60
TCL: Running for 100000 steps
ETITLE: TS BOND ANGLE DIHED IMPRP ELECT VDW BOUNDARY MISC KINETIC TOTAL TEMP POTENTIAL TOTAL3 TEMPAVG PRESSURE GPRESSURE VOLUME PRESSAVG GPRESSAVG
ENERGY: 100000 0.0000 0.0000 0.0000 0.0000 -14414.5265 2445.0299 0.0000 0.0000 177.2250 -11792.2716 29.8773 -11969.4966 -11791.7782 29.8773 -403.6979 -347.9655 28830.0923 -403.6979 -347.9655
ENERGY: 200000 0.0000 0.0000 0.0000 0.0000 -14534.3862 2613.8241 0.0000 0.0000 351.4264 -11569.1357 59.2448 -11920.5621 -11568.2631 59.8935 1185.6032 1240.7419 28743.0721 4.6249 4.6495
TCL: Running 100000 steps at 90 kelvin.
TCL: Setting parameter langevinTemp to 90
TCL: Running for 100000 steps
ETITLE: TS BOND ANGLE DIHED IMPRP ELECT VDW BOUNDARY MISC KINETIC TOTAL TEMP POTENTIAL TOTAL3 TEMPAVG PRESSURE GPRESSURE VOLUME PRESSAVG GPRESSAVG
ENERGY: 200000 0.0000 0.0000 0.0000 0.0000 -14534.3862 2613.8241 0.0000 0.0000 351.2506 -11569.3115 59.2152 -11920.5621 -11568.5553 59.2152 1186.4900 1240.6902 28743.0721 1186.4900 1240.6902
ENERGY: 300000 0.0000 0.0000 0.0000 0.0000 -14211.4442 2410.0368 0.0000 0.0000 547.5176 -11253.8898 92.3026 -11801.4074 -11252.6911 89.9467 -91.4169 -47.6117 28952.1668 5.5833 5.6443
TCL: Running 100000 steps at 120 kelvin.
TCL: Setting parameter langevinTemp to 120
TCL: Running for 100000 steps
ETITLE: TS BOND ANGLE DIHED IMPRP ELECT VDW BOUNDARY MISC KINETIC TOTAL TEMP POTENTIAL TOTAL3 TEMPAVG PRESSURE GPRESSURE VOLUME PRESSAVG GPRESSAVG
ENERGY: 300000 0.0000 0.0000 0.0000 0.0000 -14211.4442 2410.0368 0.0000 0.0000 547.2531 -11254.1543 92.2580 -11801.4074 -11252.9268 92.2580 -92.7896 -47.8176 28952.1668 -92.7896 -47.8176
ENERGY: 400000 0.0000 0.0000 0.0000 0.0000 -14127.9769 2431.6714 0.0000 0.0000 720.2886 -10976.0170 121.4290 -11696.3055 -10974.1658 120.0888 461.1249 497.4325 28945.7223 4.2878 4.0971
TCL: Running 100000 steps at 150 kelvin.
TCL: Setting parameter langevinTemp to 150
TCL: Running for 100000 steps
ETITLE: TS BOND ANGLE DIHED IMPRP ELECT VDW BOUNDARY MISC KINETIC TOTAL TEMP POTENTIAL TOTAL3 TEMPAVG PRESSURE GPRESSURE VOLUME PRESSAVG GPRESSAVG
ENERGY: 400000 0.0000 0.0000 0.0000 0.0000 -14127.9769 2431.6714 0.0000 0.0000 719.9323 -10976.3732 121.3690 -11696.3055 -10974.7608 121.3690 451.8417 497.5593 28945.7223 451.8417 497.5593
ENERGY: 500000 0.0000 0.0000 0.0000 0.0000 -13766.3329 2293.2468 0.0000 0.0000 876.0108 -10597.0753 147.6813 -11473.0861 -10594.6872 150.0201 105.3690 152.8559 29090.2478 3.9318 3.9007
TCL: Running 100000 steps at 180 kelvin.
TCL: Setting parameter langevinTemp to 180
TCL: Running for 100000 steps
ETITLE: TS BOND ANGLE DIHED IMPRP ELECT VDW BOUNDARY MISC KINETIC TOTAL TEMP POTENTIAL TOTAL3 TEMPAVG PRESSURE GPRESSURE VOLUME PRESSAVG GPRESSAVG
ENERGY: 500000 0.0000 0.0000 0.0000 0.0000 -13766.3329 2293.2468 0.0000 0.0000 875.5562 -10597.5299 147.6047 -11473.0861 -10595.8333 147.6047 95.6774 153.0641 29090.2478 95.6774 153.0641
ENERGY: 600000 0.0000 0.0000 0.0000 0.0000 -13354.0328 2141.6388 0.0000 0.0000 1051.3285 -10161.0655 177.2370 -11212.3940 -10159.2282 179.7799 -101.8547 -30.2789 29251.3464 4.6389 4.6614
TCL: Running 100000 steps at 210 kelvin.
TCL: Setting parameter langevinTemp to 210
TCL: Running for 100000 steps
ETITLE: TS BOND ANGLE DIHED IMPRP ELECT VDW BOUNDARY MISC KINETIC TOTAL TEMP POTENTIAL TOTAL3 TEMPAVG PRESSURE GPRESSURE VOLUME PRESSAVG GPRESSAVG
ENERGY: 600000 0.0000 0.0000 0.0000 0.0000 -13354.0328 2141.6388 0.0000 0.0000 1050.8162 -10161.5778 177.1507 -11212.3940 -10159.4619 177.1507 -105.5466 -31.0971 29251.3464 -105.5466 -31.0971
ENERGY: 700000 0.0000 0.0000 0.0000 0.0000 -12642.4159 1929.6374 0.0000 0.0000 1249.8471 -9462.9313 210.7041 -10712.7784 -9459.7310 210.1631 -104.4036 7.9158 29210.3409 3.8855 3.8571
TCL: Running 100000 steps at 240 kelvin.
TCL: Setting parameter langevinTemp to 240
TCL: Running for 100000 steps
ETITLE: TS BOND ANGLE DIHED IMPRP ELECT VDW BOUNDARY MISC KINETIC TOTAL TEMP POTENTIAL TOTAL3 TEMPAVG PRESSURE GPRESSURE VOLUME PRESSAVG GPRESSAVG
ENERGY: 700000 0.0000 0.0000 0.0000 0.0000 -12642.4159 1929.6374 0.0000 0.0000 1249.2060 -9463.5725 210.5960 -10712.7784 -9461.4773 210.5960 -76.4459 7.1364 29210.3409 -76.4459 7.1364
ENERGY: 800000 0.0000 0.0000 0.0000 0.0000 -11917.6126 1686.9244 0.0000 0.0000 1402.5270 -8828.1612 236.4434 -10230.6882 -8825.4478 240.0442 -363.1783 -282.1439 29465.3050 2.3584 2.2724
TCL: Running 100000 steps at 270 kelvin.
TCL: Setting parameter langevinTemp to 270
TCL: Running for 100000 steps
ETITLE: TS BOND ANGLE DIHED IMPRP ELECT VDW BOUNDARY MISC KINETIC TOTAL TEMP POTENTIAL TOTAL3 TEMPAVG PRESSURE GPRESSURE VOLUME PRESSAVG GPRESSAVG
ENERGY: 800000 0.0000 0.0000 0.0000 0.0000 -11917.6126 1686.9244 0.0000 0.0000 1401.8087 -8828.8796 236.3223 -10230.6882 -8826.9346 236.3223 -373.9630 -284.0064 29465.3050 -373.9630 -284.0064
ENERGY: 900000 0.0000 0.0000 0.0000 0.0000 -11504.0342 1676.1862 0.0000 0.0000 1564.9716 -8262.8764 263.8290 -9827.8480 -8261.4930 270.1099 895.7269 962.3306 29555.6107 4.0077 3.9358
TCL: Running 1000000 steps at 300 kelvin.
TCL: Setting parameter langevinTemp to 300
TCL: Running for 1000000 steps
ETITLE: TS BOND ANGLE DIHED IMPRP ELECT VDW BOUNDARY MISC KINETIC TOTAL TEMP POTENTIAL TOTAL3 TEMPAVG PRESSURE GPRESSURE VOLUME PRESSAVG GPRESSAVG
ENERGY: 900000 0.0000 0.0000 0.0000 0.0000 -11504.0342 1676.1862 0.0000 0.0000 1564.1730 -8263.6750 263.6944 -9827.8480 -8262.1640 263.6944 880.2499 961.2685 29555.6107 880.2499 961.2685
ENERGY: 1100000 0.0000 0.0000 0.0000 0.0000 -11020.1484 1545.5794 0.0000 0.0000 1775.2834 -7699.2856 299.2842 -9474.5689 -7695.3739 300.9030 433.1926 611.2661 30716.8072 3.2279 3.0753
ENERGY: 1300000 0.0000 0.0000 0.0000 0.0000 -10881.9055 1486.8317 0.0000 0.0000 1811.5526 -7583.5212 305.3986 -9395.0738 -7580.0341 300.4161 105.9059 158.9685 31449.2159 2.1120 2.3346
ENERGY: 1500000 0.0000 0.0000 0.0000 0.0000 -10885.7580 1409.4212 0.0000 0.0000 1796.6826 -7679.6542 302.8917 -9476.3368 -7675.9947 300.3824 -598.5464 -446.3113 30804.3023 4.0393 3.9353
ENERGY: 1700000 0.0000 0.0000 0.0000 0.0000 -10900.9486 1448.1995 0.0000 0.0000 1785.3629 -7667.3862 300.9834 -9452.7491 -7661.6803 300.3060 46.7251 161.9054 30336.0717 2.4611 2.4219
ENERGY: 1900000 0.0000 0.0000 0.0000 0.0000 -11018.9292 1536.4071 0.0000 0.0000 1746.1001 -7736.4220 294.3643 -9482.5221 -7734.9443 299.7706 440.7733 490.5269 30517.5498 4.2410 4.1423
TCL: Exiting due to exit command.
