Info: SIMULATION PARAMETERS:
Info: TIMESTEP               2
Info: NUMBER OF STEPS        0
Info: STEPS PER CYCLE        10
Info: PERIODIC CELL BASIS 1  37.968 0 0
Info: PERIODIC CELL BASIS 2  0 36.032 0
Info: PERIODIC CELL BASIS 3  0 0 31.855
Info: PERIODIC CELL CENTER   0 0 0
Info: WRAPPING WATERS AROUND PERIODIC BOUNDARIES ON OUTPUT.
Info: WRAPPING ALL CLUSTERS AROUND PERIODIC BOUNDARIES ON OUTPUT.
Info: FIRST LDB TIMESTEP     50
Info: LAST LDB TIMESTEP     -1
Info: HOM BACKGROUND SCALING 1
Info: PME BACKGROUND SCALING 1
Info: MIN ATOMS PER PATCH    40
Info: EMPTY PATCH LOAD       40 ATOMS
Info: INITIAL TEMPERATURE    300
Info: CENTER OF MASS MOVING INITIALLY? NO
Info: DIELECTRIC             1
Info: EXCLUDE                SCALED ONE-FOUR
Info: 1-4 ELECTROSTATICS SCALED BY 0.833333
Info: MODIFIED 1-4 VDW PARAMETERS WILL BE USED
Info: DCD FILENAME           mobley_2661134_equil.dcd
Info: DCD FREQUENCY          100000
Info: DCD FIRST STEP         100000
Info: DCD FILE WILL CONTAIN UNIT CELL DATA
Info: XST FILENAME           mobley_2661134_equil.xst
Info: XST FREQUENCY          100000
Info: NO VELOCITY DCD OUTPUT
Info: NO FORCE DCD OUTPUT
Info: OUTPUT FILENAME        mobley_2661134_equil
Info: BINARY OUTPUT FILES WILL BE USED
Info: RESTART FILENAME       mobley_2661134_equil.restart
Info: RESTART FREQUENCY      100000
Info: BINARY RESTART FILES WILL BE USED
Info: CUTOFF                 9
Info: PAIRLIST DISTANCE      11
Info: PAIRLIST SHRINK RATE   0.01
Info: PAIRLIST GROW RATE     0.01
Info: PAIRLIST TRIGGER       0.3
Info: PAIRLISTS PER CYCLE    2
Info: PAIRLISTS ENABLED
Info: MARGIN                 8
Info: HYDROGEN GROUP CUTOFF  2.5
Info: PATCH DIMENSION        21.5
Info: ENERGY OUTPUT STEPS    100000
Info: ENERGY EVALUATION STEPS    100000
Info: OUTPUT ENERGY PRECISION 4
Info: CROSSTERM ENERGY INCLUDED IN DIHEDRAL
Info: TIMING OUTPUT STEPS    1000000
Info: PRESSURE OUTPUT STEPS  100000
Info: FIXED ATOMS ACTIVE
Info: LANGEVIN DYNAMICS ACTIVE
Info: LANGEVIN TEMPERATURE   30
Info: LANGEVIN USING BBK INTEGRATOR
Info: LANGEVIN DAMPING COEFFICIENT IS 1 INVERSE PS
Info: LANGEVIN DYNAMICS APPLIED TO HYDROGENS
Info: LANGEVIN PISTON PRESSURE CONTROL ACTIVE
Info:        TARGET PRESSURE IS 1.01325 BAR
Info:     OSCILLATION PERIOD IS 50 FS
Info:             DECAY TIME IS 25 FS
Info:     PISTON TEMPERATURE IS 300 K
Info:       PRESSURE CONTROL IS GROUP-BASED
Info:    INITIAL STRAIN RATE IS 0 0 0
Info:       CELL FLUCTUATION IS ISOTROPIC
Info: PARTICLE MESH EWALD (PME) ACTIVE
Info: PME TOLERANCE               1e-06
Info: PME EWALD COEFFICIENT       0.348832
Info: PME INTERPOLATION ORDER     4
Info: PME GRID DIMENSIONS         40 40 32
Info: PME MAXIMUM GRID SPACING    1
Info: FULL ELECTROSTATIC EVALUATION FREQUENCY      2
Info: USING VERLET I (r-RESPA) MTS SCHEME.
Info: C1 SPLITTING OF LONG RANGE ELECTROSTATICS
Info: PLACING ATOMS IN PATCHES BY HYDROGEN GROUPS
Info: RIGID BONDS TO HYDROGEN : ALL
Info:         ERROR TOLERANCE : 1e-08
Info:          MAX ITERATIONS : 100
Info: RIGID WATER USING SETTLE ALGORITHM
Info: RANDOM NUMBER SEED     1743730809
Info: USE HYDROGEN BONDS?    NO
Info: Using AMBER format force field!
Info: AMBER PARM FILE        mobley_2661134.prmtop
Info: COORDINATE PDB         mobley_2661134.pdb
Info: Exclusions will be read from PARM file!
Info: SCNB (VDW SCALING)     2
Info: USING ARITHMETIC MEAN TO COMBINE L-J SIGMA PARAMETERS
Info: BINARY COORDINATES     mobley_2661134_min.coor
Info: SUMMARY OF PARAMETERS:
Info: 8 BONDS
Info: 6 ANGLES
Info:   6 HARMONIC
Info:   0 COSINE-BASED
Info: 4 DIHEDRAL
Info: 0 IMPROPER
Info: 0 CROSSTERM
Info: 0 VDW
Info: 28 VDW_PAIRS
Info: 0 NBTHOLE_PAIRS
Info: STRUCTURE SUMMARY:
Info: 2975 ATOMS
Info: 2975 BONDS
Info: 20 ANGLES
Info: 34 DIHEDRALS
Info: 0 IMPROPERS
Info: 0 CROSSTERMS
Info: 3020 EXCLUSIONS
Info: 14 FIXED ATOMS
Info: 2966 RIGID BONDS
Info: 5 RIGID BONDS BETWEEN FIXED ATOMS
Info: 5922 DEGREES OF FREEDOM
Info: 996 HYDROGEN GROUPS
Info: 3 ATOMS IN LARGEST HYDROGEN GROUP
Info: 996 MIGRATION GROUPS
Info: 3 ATOMS IN LARGEST MIGRATION GROUP
Info: 9 HYDROGEN GROUPS WITH ALL ATOMS FIXED
Info: TOTAL MASS = 17900.9 amu
Info: TOTAL CHARGE = -0.000100004 e
Info: MASS DENSITY = 0.682104 g/cm^3
Info: ATOM DENSITY = 0.0682658 atoms/A^3
Info: ADDED 0 IMPLICIT EXCLUSIONS
Info: NONBONDED TABLE R-SQUARED SPACING: 0.0625
Info: NONBONDED TABLE SIZE: 705 POINTS
Info: REMOVING COM VELOCITY -0.31045 -0.0464219 0.0625517
TCL: Running for 100000 steps
ETITLE: TS BOND ANGLE DIHED IMPRP ELECT VDW BOUNDARY MISC KINETIC TOTAL TEMP POTENTIAL TOTAL3 TEMPAVG PRESSURE GPRESSURE VOLUME PRESSAVG GPRESSAVG
ENERGY: 0 0.0000 0.0000 0.0000 0.0000 -13865.4759 2408.6468 0.0000 0.0000 1801.2002 -9655.6289 306.1146 -11456.8291 -9655.2811 306.1146 261.1822 300.5879 43579.6461 261.1822 300.5879
ENERGY: 100000 0.0000 0.0000 0.0000 0.0000 -14287.7821 2361.8074 0.0000 0.0000 177.5728 -11748.4020 30.1785 -11925.9747 -11747.8089 30.8508 -1377.9843 -1339.0124 29714.1101 3.3739 3.3865
TCL: Running 100000 steps at 60 kelvin.
TCL: Setting parameter langevinTemp to 60
TCL: Running for 100000 steps
ETITLE: TS BOND ANGLE DIHED IMPRP ELECT VDW BOUNDARY MISC KINETIC TOTAL TEMP POTENTIAL TOTAL3 TEMPAVG PRESSURE GPRESSURE VOLUME PRESSAVG GPRESSAVG
ENERGY: 100000 0.0000 0.0000 0.0000 0.0000 -14287.7821 2361.8074 0.0000 0.0000 177.4843 -11748.4904 30.1635 -11925.9747 -11748.0387 30.1635 -1385.8018 -1338.8669 29714.1101 -1385.8018 -1338.8669
ENERGY: 200000 0.0000 0.0000 0.0000 0.0000 -14224.3776 2378.3049 0.0000 0.0000 353.9321 -11492.1406 60.1509 -11846.0727 -11491.1905 60.0329 -937.3267 -872.9825 29653.8849 4.4739 4.4607
TCL: Running 100000 steps at 90 kelvin.
TCL: Setting parameter langevinTemp to 90
TCL: Running for 100000 steps
ETITLE: TS BOND ANGLE DIHED IMPRP ELECT VDW BOUNDARY MISC KINETIC TOTAL TEMP POTENTIAL TOTAL3 TEMPAVG PRESSURE GPRESSURE VOLUME PRESSAVG GPRESSAVG
ENERGY: 200000 0.0000 0.0000 0.0000 0.0000 -14224.3776 2378.3049 0.0000 0.0000 353.7580 -11492.3147 60.1213 -11846.0727 -11491.5429 60.1213 -935.4621 -873.4307 29653.8849 -935.4621 -873.4307
ENERGY: 300000 0.0000 0.0000 0.0000 0.0000 -13987.2948 2284.4167 0.0000 0.0000 532.4885 -11170.3897 90.4966 -11702.8781 -11169.0294 90.0576 -1189.3913 -1129.3225 29921.6795 2.7925 2.8364
TCL: Running 100000 steps at 120 kelvin.
TCL: Setting parameter langevinTemp to 120
TCL: Running for 100000 steps
ETITLE: TS BOND ANGLE DIHED IMPRP ELECT VDW BOUNDARY MISC KINETIC TOTAL TEMP POTENTIAL TOTAL3 TEMPAVG PRESSURE GPRESSURE VOLUME PRESSAVG GPRESSAVG
ENERGY: 300000 0.0000 0.0000 0.0000 0.0000 -13987.2948 2284.4167 0.0000 0.0000 532.2286 -11170.6495 90.4524 -11702.8781 -11169.1684 90.4524 -1182.2709 -1130.0814 29921.6795 -1182.2709 -1130.0814
ENERGY: 400000 0.0000 0.0000 0.0000 0.0000 -13871.8258 2263.4953 0.0000 0.0000 708.7790 -10899.5515 120.4572 -11608.3305 -10897.3652 120.0127 -971.6054 -922.4796 29798.9941 3.0803 3.1017
TCL: Running 100000 steps at 150 kelvin.
TCL: Setting parameter langevinTemp to 150
TCL: Running for 100000 steps
ETITLE: TS BOND ANGLE DIHED IMPRP ELECT VDW BOUNDARY MISC KINETIC TOTAL TEMP POTENTIAL TOTAL3 TEMPAVG PRESSURE GPRESSURE VOLUME PRESSAVG GPRESSAVG
ENERGY: 400000 0.0000 0.0000 0.0000 0.0000 -13871.8258 2263.4953 0.0000 0.0000 708.4319 -10899.8986 120.3982 -11608.3305 -10898.5982 120.3982 -971.4822 -922.4523 29798.9941 -971.4822 -922.4523
ENERGY: 500000 0.0000 0.0000 0.0000 0.0000 -13698.0348 2315.6515 0.0000 0.0000 901.7266 -10480.6567 153.2487 -11382.3833 -10478.6012 149.8002 314.2374 356.7261 29435.7510 3.3796 3.5776
TCL: Running 100000 steps at 180 kelvin.
TCL: Setting parameter langevinTemp to 180
TCL: Running for 100000 steps
ETITLE: TS BOND ANGLE DIHED IMPRP ELECT VDW BOUNDARY MISC KINETIC TOTAL TEMP POTENTIAL TOTAL3 TEMPAVG PRESSURE GPRESSURE VOLUME PRESSAVG GPRESSAVG
ENERGY: 500000 0.0000 0.0000 0.0000 0.0000 -13698.0348 2315.6515 0.0000 0.0000 901.2849 -10481.0984 153.1737 -11382.3833 -10479.4577 153.1737 307.3152 357.6715 29435.7510 307.3152 357.6715
ENERGY: 600000 0.0000 0.0000 0.0000 0.0000 -13315.9259 2151.0413 0.0000 0.0000 1064.3895 -10100.4952 180.8933 -11164.8847 -10098.4638 180.0052 223.4014 284.9820 28837.6008 3.2296 3.2309
TCL: Running 100000 steps at 210 kelvin.
TCL: Setting parameter langevinTemp to 210
TCL: Running for 100000 steps
ETITLE: TS BOND ANGLE DIHED IMPRP ELECT VDW BOUNDARY MISC KINETIC TOTAL TEMP POTENTIAL TOTAL3 TEMPAVG PRESSURE GPRESSURE VOLUME PRESSAVG GPRESSAVG
ENERGY: 600000 0.0000 0.0000 0.0000 0.0000 -13315.9259 2151.0413 0.0000 0.0000 1063.8937 -10100.9909 180.8091 -11164.8847 -10098.8252 180.8091 218.5663 284.7624 28837.6008 218.5663 284.7624
ENERGY: 700000 0.0000 0.0000 0.0000 0.0000 -12690.1492 1919.5615 0.0000 0.0000 1258.9094 -9511.6783 213.9520 -10770.5877 -9508.8643 209.7506 -534.0339 -446.2461 29460.2199 3.9114 3.8268
TCL: Running 100000 steps at 240 kelvin.
TCL: Setting parameter langevinTemp to 240
TCL: Running for 100000 steps
ETITLE: TS BOND ANGLE DIHED IMPRP ELECT VDW BOUNDARY MISC KINETIC TOTAL TEMP POTENTIAL TOTAL3 TEMPAVG PRESSURE GPRESSURE VOLUME PRESSAVG GPRESSAVG
ENERGY: 700000 0.0000 0.0000 0.0000 0.0000 -12690.1492 1919.5615 0.0000 0.0000 1258.2610 -9512.3267 213.8419 -10770.5877 -9510.0416 213.8419 -527.8606 -446.2599 29460.2199 -527.8606 -446.2599
ENERGY: 800000 0.0000 0.0000 0.0000 0.0000 -12055.0066 1800.4516 0.0000 0.0000 1425.4115 -8829.1434 242.2491 -10254.5549 -8825.0231 240.0380 538.4634 580.6358 29012.9366 3.5909 3.5486
TCL: Running 100000 steps at 270 kelvin.
TCL: Setting parameter langevinTemp to 270
TCL: Running for 100000 steps
ETITLE: TS BOND ANGLE DIHED IMPRP ELECT VDW BOUNDARY MISC KINETIC TOTAL TEMP POTENTIAL TOTAL3 TEMPAVG PRESSURE GPRESSURE VOLUME PRESSAVG GPRESSAVG
ENERGY: 800000 0.0000 0.0000 0.0000 0.0000 -12055.0066 1800.4516 0.0000 0.0000 1424.7111 -8829.8438 242.1301 -10254.5549 -8827.5125 242.1301 491.9496 581.1569 29012.9366 491.9496 581.1569
ENERGY: 900000 0.0000 0.0000 0.0000 0.0000 -11284.2464 1532.9596 0.0000 0.0000 1591.1935 -8160.0933 270.4238 -9751.2868 -8158.8707 269.5658 -373.3645 -340.9643 30102.1607 3.5242 3.6366
TCL: Running 1000000 steps at 300 kelvin.
TCL: Setting parameter langevinTemp to 300
TCL: Running for 1000000 steps
ETITLE: TS BOND ANGLE DIHED IMPRP ELECT VDW BOUNDARY MISC KINETIC TOTAL TEMP POTENTIAL TOTAL3 TEMPAVG PRESSURE GPRESSURE VOLUME PRESSAVG GPRESSAVG
ENERGY: 900000 0.0000 0.0000 0.0000 0.0000 -11284.2464 1532.9596 0.0000 0.0000 1590.4202 -8160.8666 270.2924 -9751.2868 -8158.3219 270.2924 -431.4016 -343.7723 30102.1607 -431.4016 -343.7723
ENERGY: 1100000 0.0000 0.0000 0.0000 0.0000 -10920.6284 1498.6743 0.0000 0.0000 1737.8894 -7684.0647 295.3548 -9421.9540 -7682.3098 300.1039 325.7870 394.9221 30458.5127 4.3807 4.2958
ENERGY: 1300000 0.0000 0.0000 0.0000 0.0000 -10861.1479 1514.5098 0.0000 0.0000 1845.2358 -7501.4023 313.5984 -9346.6381 -7498.6756 299.7381 533.3491 630.6343 31058.4167 3.6113 3.6019
ENERGY: 1500000 0.0000 0.0000 0.0000 0.0000 -10767.0820 1463.8336 0.0000 0.0000 1818.5365 -7484.7119 309.0609 -9303.2484 -7482.0791 299.9594 343.8820 412.8251 30723.3299 3.7477 3.7646
ENERGY: 1700000 0.0000 0.0000 0.0000 0.0000 -10858.3927 1430.9297 0.0000 0.0000 1764.3052 -7663.1578 299.8442 -9427.4629 -7656.9348 300.2013 -398.7124 -287.0587 30841.3190 2.9697 3.1113
ENERGY: 1900000 0.0000 0.0000 0.0000 0.0000 -10830.1727 1475.6116 0.0000 0.0000 1786.7642 -7567.7969 303.6611 -9354.5611 -7565.5034 299.7025 262.8566 397.0720 30666.2482 3.9121 3.8299
TCL: Exiting due to exit command.
