Info: SIMULATION PARAMETERS:
Info: TIMESTEP               2
Info: NUMBER OF STEPS        0
Info: STEPS PER CYCLE        10
Info: PERIODIC CELL BASIS 1  37.133 0 0
Info: PERIODIC CELL BASIS 2  0 36.611 0
Info: PERIODIC CELL BASIS 3  0 0 32.993
Info: PERIODIC CELL CENTER   0 0 0
Info: WRAPPING WATERS AROUND PERIODIC BOUNDARIES ON OUTPUT.
Info: WRAPPING ALL CLUSTERS AROUND PERIODIC BOUNDARIES ON OUTPUT.
Info: FIRST LDB TIMESTEP     50
Info: LAST LDB TIMESTEP     -1
Info: HOM BACKGROUND SCALING 1
Info: PME BACKGROUND SCALING 1
Info: MIN ATOMS PER PATCH    40
Info: EMPTY PATCH LOAD       40 ATOMS
Info: INITIAL TEMPERATURE    300
Info: CENTER OF MASS MOVING INITIALLY? NO
Info: DIELECTRIC             1
Info: EXCLUDE                SCALED ONE-FOUR
Info: 1-4 ELECTROSTATICS SCALED BY 0.833333
Info: MODIFIED 1-4 VDW PARAMETERS WILL BE USED
Info: DCD FILENAME           mobley_4338603_equil.dcd
Info: DCD FREQUENCY          100000
Info: DCD FIRST STEP         100000
Info: DCD FILE WILL CONTAIN UNIT CELL DATA
Info: XST FILENAME           mobley_4338603_equil.xst
Info: XST FREQUENCY          100000
Info: NO VELOCITY DCD OUTPUT
Info: NO FORCE DCD OUTPUT
Info: OUTPUT FILENAME        mobley_4338603_equil
Info: BINARY OUTPUT FILES WILL BE USED
Info: RESTART FILENAME       mobley_4338603_equil.restart
Info: RESTART FREQUENCY      100000
Info: BINARY RESTART FILES WILL BE USED
Info: CUTOFF                 9
Info: PAIRLIST DISTANCE      11
Info: PAIRLIST SHRINK RATE   0.01
Info: PAIRLIST GROW RATE     0.01
Info: PAIRLIST TRIGGER       0.3
Info: PAIRLISTS PER CYCLE    2
Info: PAIRLISTS ENABLED
Info: MARGIN                 8
Info: HYDROGEN GROUP CUTOFF  2.5
Info: PATCH DIMENSION        21.5
Info: ENERGY OUTPUT STEPS    100000
Info: ENERGY EVALUATION STEPS    100000
Info: OUTPUT ENERGY PRECISION 4
Info: CROSSTERM ENERGY INCLUDED IN DIHEDRAL
Info: TIMING OUTPUT STEPS    1000000
Info: PRESSURE OUTPUT STEPS  100000
Info: FIXED ATOMS ACTIVE
Info: LANGEVIN DYNAMICS ACTIVE
Info: LANGEVIN TEMPERATURE   30
Info: LANGEVIN USING BBK INTEGRATOR
Info: LANGEVIN DAMPING COEFFICIENT IS 1 INVERSE PS
Info: LANGEVIN DYNAMICS APPLIED TO HYDROGENS
Info: LANGEVIN PISTON PRESSURE CONTROL ACTIVE
Info:        TARGET PRESSURE IS 1.01325 BAR
Info:     OSCILLATION PERIOD IS 50 FS
Info:             DECAY TIME IS 25 FS
Info:     PISTON TEMPERATURE IS 300 K
Info:       PRESSURE CONTROL IS GROUP-BASED
Info:    INITIAL STRAIN RATE IS 0 0 0
Info:       CELL FLUCTUATION IS ISOTROPIC
Info: PARTICLE MESH EWALD (PME) ACTIVE
Info: PME TOLERANCE               1e-06
Info: PME EWALD COEFFICIENT       0.348832
Info: PME INTERPOLATION ORDER     4
Info: PME GRID DIMENSIONS         40 40 36
Info: PME MAXIMUM GRID SPACING    1
Info: FULL ELECTROSTATIC EVALUATION FREQUENCY      2
Info: USING VERLET I (r-RESPA) MTS SCHEME.
Info: C1 SPLITTING OF LONG RANGE ELECTROSTATICS
Info: PLACING ATOMS IN PATCHES BY HYDROGEN GROUPS
Info: RIGID BONDS TO HYDROGEN : ALL
Info:         ERROR TOLERANCE : 1e-08
Info:          MAX ITERATIONS : 100
Info: RIGID WATER USING SETTLE ALGORITHM
Info: RANDOM NUMBER SEED     1743720427
Info: USE HYDROGEN BONDS?    NO
Info: Using AMBER format force field!
Info: AMBER PARM FILE        mobley_4338603.prmtop
Info: COORDINATE PDB         mobley_4338603.pdb
Info: Exclusions will be read from PARM file!
Info: SCNB (VDW SCALING)     2
Info: USING ARITHMETIC MEAN TO COMBINE L-J SIGMA PARAMETERS
Info: BINARY COORDINATES     mobley_4338603_min.coor
Info: SUMMARY OF PARAMETERS:
Info: 10 BONDS
Info: 14 ANGLES
Info:   14 HARMONIC
Info:   0 COSINE-BASED
Info: 7 DIHEDRAL
Info: 0 IMPROPER
Info: 0 CROSSTERM
Info: 0 VDW
Info: 36 VDW_PAIRS
Info: 0 NBTHOLE_PAIRS
Info: STRUCTURE SUMMARY:
Info: 2943 ATOMS
Info: 2943 BONDS
Info: 18 ANGLES
Info: 33 DIHEDRALS
Info: 0 IMPROPERS
Info: 0 CROSSTERMS
Info: 2982 EXCLUSIONS
Info: 12 FIXED ATOMS
Info: 2934 RIGID BONDS
Info: 3 RIGID BONDS BETWEEN FIXED ATOMS
Info: 5862 DEGREES OF FREEDOM
Info: 986 HYDROGEN GROUPS
Info: 3 ATOMS IN LARGEST HYDROGEN GROUP
Info: 986 MIGRATION GROUPS
Info: 3 ATOMS IN LARGEST MIGRATION GROUP
Info: 9 HYDROGEN GROUPS WITH ALL ATOMS FIXED
Info: TOTAL MASS = 17748.2 amu
Info: TOTAL CHARGE = -8.9407e-08 e
Info: MASS DENSITY = 0.657082 g/cm^3
Info: ATOM DENSITY = 0.065614 atoms/A^3
Info: ADDED 0 IMPLICIT EXCLUSIONS
Info: NONBONDED TABLE R-SQUARED SPACING: 0.0625
Info: NONBONDED TABLE SIZE: 705 POINTS
Info: REMOVING COM VELOCITY -0.18925 0.0658531 -0.112652
TCL: Running for 100000 steps
ETITLE: TS BOND ANGLE DIHED IMPRP ELECT VDW BOUNDARY MISC KINETIC TOTAL TEMP POTENTIAL TOTAL3 TEMPAVG PRESSURE GPRESSURE VOLUME PRESSAVG GPRESSAVG
ENERGY: 0 0.0000 0.0000 0.0000 0.0000 -13795.2988 2379.6045 0.0000 0.0000 1726.7598 -9688.9345 296.4671 -11415.6943 -9688.6273 296.4671 412.2265 446.1917 44853.2003 412.2265 446.1917
ENERGY: 100000 0.0000 0.0000 0.0000 0.0000 -14406.9018 2501.5624 0.0000 0.0000 170.9427 -11734.3967 29.3491 -11905.3394 -11733.8116 30.8759 218.8183 278.1874 29388.4247 4.1479 4.2184
TCL: Running 100000 steps at 60 kelvin.
TCL: Setting parameter langevinTemp to 60
TCL: Running for 100000 steps
ETITLE: TS BOND ANGLE DIHED IMPRP ELECT VDW BOUNDARY MISC KINETIC TOTAL TEMP POTENTIAL TOTAL3 TEMPAVG PRESSURE GPRESSURE VOLUME PRESSAVG GPRESSAVG
ENERGY: 100000 0.0000 0.0000 0.0000 0.0000 -14406.9018 2501.5624 0.0000 0.0000 170.8576 -11734.4818 29.3345 -11905.3394 -11734.1948 29.3345 220.9597 278.2236 29388.4247 220.9597 278.2236
ENERGY: 200000 0.0000 0.0000 0.0000 0.0000 -14247.5545 2432.6247 0.0000 0.0000 344.7290 -11470.2009 59.1865 -11814.9298 -11469.6291 59.8812 89.6421 85.6172 29312.3538 3.6630 3.6823
TCL: Running 100000 steps at 90 kelvin.
TCL: Setting parameter langevinTemp to 90
TCL: Running for 100000 steps
ETITLE: TS BOND ANGLE DIHED IMPRP ELECT VDW BOUNDARY MISC KINETIC TOTAL TEMP POTENTIAL TOTAL3 TEMPAVG PRESSURE GPRESSURE VOLUME PRESSAVG GPRESSAVG
ENERGY: 200000 0.0000 0.0000 0.0000 0.0000 -14247.5545 2432.6247 0.0000 0.0000 344.5595 -11470.3703 59.1574 -11814.9298 -11469.7847 59.1574 52.0027 85.5371 29312.3538 52.0027 85.5371
ENERGY: 300000 0.0000 0.0000 0.0000 0.0000 -13961.2048 2237.5415 0.0000 0.0000 523.1648 -11200.4986 89.8221 -11723.6633 -11198.7857 90.1065 -1255.6062 -1188.2323 29529.8754 3.4797 3.4887
TCL: Running 100000 steps at 120 kelvin.
TCL: Setting parameter langevinTemp to 120
TCL: Running for 100000 steps
ETITLE: TS BOND ANGLE DIHED IMPRP ELECT VDW BOUNDARY MISC KINETIC TOTAL TEMP POTENTIAL TOTAL3 TEMPAVG PRESSURE GPRESSURE VOLUME PRESSAVG GPRESSAVG
ENERGY: 300000 0.0000 0.0000 0.0000 0.0000 -13961.2048 2237.5415 0.0000 0.0000 522.9006 -11200.7628 89.7767 -11723.6633 -11199.7492 89.7767 -1236.5217 -1187.6975 29529.8754 -1236.5217 -1187.6975
ENERGY: 400000 0.0000 0.0000 0.0000 0.0000 -13906.9300 2308.9854 0.0000 0.0000 688.4347 -10909.5099 118.1972 -11597.9446 -10908.1834 119.9254 -277.1860 -226.3420 29453.9910 3.6271 3.5949
TCL: Running 100000 steps at 150 kelvin.
TCL: Setting parameter langevinTemp to 150
TCL: Running for 100000 steps
ETITLE: TS BOND ANGLE DIHED IMPRP ELECT VDW BOUNDARY MISC KINETIC TOTAL TEMP POTENTIAL TOTAL3 TEMPAVG PRESSURE GPRESSURE VOLUME PRESSAVG GPRESSAVG
ENERGY: 400000 0.0000 0.0000 0.0000 0.0000 -13906.9300 2308.9854 0.0000 0.0000 688.0910 -10909.8536 118.1382 -11597.9446 -10908.6108 118.1382 -273.9422 -226.5431 29453.9910 -273.9422 -226.5431
ENERGY: 500000 0.0000 0.0000 0.0000 0.0000 -13614.8875 2161.9276 0.0000 0.0000 854.8457 -10598.1142 146.7683 -11452.9599 -10596.3248 150.3559 -778.5283 -794.7884 29252.2025 3.6371 3.4989
TCL: Running 100000 steps at 180 kelvin.
TCL: Setting parameter langevinTemp to 180
TCL: Running for 100000 steps
ETITLE: TS BOND ANGLE DIHED IMPRP ELECT VDW BOUNDARY MISC KINETIC TOTAL TEMP POTENTIAL TOTAL3 TEMPAVG PRESSURE GPRESSURE VOLUME PRESSAVG GPRESSAVG
ENERGY: 500000 0.0000 0.0000 0.0000 0.0000 -13614.8875 2161.9276 0.0000 0.0000 854.3977 -10598.5622 146.6914 -11452.9599 -10596.5031 146.6914 -837.7989 -794.3322 29252.2025 -837.7989 -794.3322
ENERGY: 600000 0.0000 0.0000 0.0000 0.0000 -13159.0803 2056.2946 0.0000 0.0000 1032.8174 -10069.9683 177.3242 -11102.7857 -10066.5724 179.8320 -191.9751 -117.1301 28733.5606 2.2832 2.3990
TCL: Running 100000 steps at 210 kelvin.
TCL: Setting parameter langevinTemp to 210
TCL: Running for 100000 steps
ETITLE: TS BOND ANGLE DIHED IMPRP ELECT VDW BOUNDARY MISC KINETIC TOTAL TEMP POTENTIAL TOTAL3 TEMPAVG PRESSURE GPRESSURE VOLUME PRESSAVG GPRESSAVG
ENERGY: 600000 0.0000 0.0000 0.0000 0.0000 -13159.0803 2056.2946 0.0000 0.0000 1032.2782 -10070.5075 177.2317 -11102.7857 -10068.6552 177.2317 -192.6546 -117.4594 28733.5606 -192.6546 -117.4594
ENERGY: 700000 0.0000 0.0000 0.0000 0.0000 -12672.0377 1913.2657 0.0000 0.0000 1241.2895 -9517.4825 213.1168 -10758.7719 -9513.5754 209.6661 -137.2786 -24.9169 28905.7539 3.9583 4.0170
TCL: Running 100000 steps at 240 kelvin.
TCL: Setting parameter langevinTemp to 240
TCL: Running for 100000 steps
ETITLE: TS BOND ANGLE DIHED IMPRP ELECT VDW BOUNDARY MISC KINETIC TOTAL TEMP POTENTIAL TOTAL3 TEMPAVG PRESSURE GPRESSURE VOLUME PRESSAVG GPRESSAVG
ENERGY: 700000 0.0000 0.0000 0.0000 0.0000 -12672.0377 1913.2657 0.0000 0.0000 1240.6719 -9518.1001 213.0107 -10758.7719 -9516.0353 213.0107 -108.2893 -23.8219 28905.7539 -108.2893 -23.8219
ENERGY: 800000 0.0000 0.0000 0.0000 0.0000 -11980.1365 1783.7132 0.0000 0.0000 1367.6815 -8828.7418 234.8170 -10196.4233 -8826.3412 240.1052 792.1234 819.1468 29033.2801 4.3675 4.2207
TCL: Running 100000 steps at 270 kelvin.
TCL: Setting parameter langevinTemp to 270
TCL: Running for 100000 steps
ETITLE: TS BOND ANGLE DIHED IMPRP ELECT VDW BOUNDARY MISC KINETIC TOTAL TEMP POTENTIAL TOTAL3 TEMPAVG PRESSURE GPRESSURE VOLUME PRESSAVG GPRESSAVG
ENERGY: 800000 0.0000 0.0000 0.0000 0.0000 -11980.1365 1783.7132 0.0000 0.0000 1367.0113 -8829.4120 234.7019 -10196.4233 -8827.5726 234.7019 724.0630 819.6014 29033.2801 724.0630 819.6014
ENERGY: 900000 0.0000 0.0000 0.0000 0.0000 -11296.0084 1485.5605 0.0000 0.0000 1608.5005 -8201.9474 276.1632 -9810.4479 -8199.6388 269.7368 -514.3471 -482.7453 29617.9052 2.3135 2.2029
TCL: Running 1000000 steps at 300 kelvin.
TCL: Setting parameter langevinTemp to 300
TCL: Running for 1000000 steps
ETITLE: TS BOND ANGLE DIHED IMPRP ELECT VDW BOUNDARY MISC KINETIC TOTAL TEMP POTENTIAL TOTAL3 TEMPAVG PRESSURE GPRESSURE VOLUME PRESSAVG GPRESSAVG
ENERGY: 900000 0.0000 0.0000 0.0000 0.0000 -11296.0084 1485.5605 0.0000 0.0000 1607.7102 -8202.7377 276.0275 -9810.4479 -8199.5917 276.0275 -561.8179 -483.5330 29617.9052 -561.8179 -483.5330
ENERGY: 1100000 0.0000 0.0000 0.0000 0.0000 -10871.6664 1396.6742 0.0000 0.0000 1737.2313 -7737.7609 298.2649 -9474.9922 -7732.0634 300.5182 -207.4215 -189.4875 30025.0763 3.0317 2.9353
ENERGY: 1300000 0.0000 0.0000 0.0000 0.0000 -10794.9203 1355.4904 0.0000 0.0000 1737.9779 -7701.4520 298.3931 -9439.4299 -7697.1541 299.8036 -785.4447 -637.5302 30580.2924 3.7968 3.9395
ENERGY: 1500000 0.0000 0.0000 0.0000 0.0000 -10757.7678 1294.0372 0.0000 0.0000 1692.8392 -7770.8914 290.6433 -9463.7306 -7766.7509 300.2925 -1003.8016 -930.3171 30055.6715 2.0770 2.2645
ENERGY: 1700000 0.0000 0.0000 0.0000 0.0000 -10899.9704 1457.4237 0.0000 0.0000 1733.2694 -7709.2774 297.5847 -9442.5467 -7708.8806 299.4240 220.9803 258.1633 30306.0994 4.1008 4.2604
ENERGY: 1900000 0.0000 0.0000 0.0000 0.0000 -10899.8068 1388.9895 0.0000 0.0000 1787.1433 -7723.6741 306.8343 -9510.8173 -7719.2807 300.9061 -624.4319 -526.0170 30542.4023 0.9008 0.7990
TCL: Exiting due to exit command.
