Info: SIMULATION PARAMETERS:
Info: TIMESTEP               2
Info: NUMBER OF STEPS        0
Info: STEPS PER CYCLE        10
Info: PERIODIC CELL BASIS 1  36.592 0 0
Info: PERIODIC CELL BASIS 2  0 34.696 0
Info: PERIODIC CELL BASIS 3  0 0 33.876
Info: PERIODIC CELL CENTER   0 0 0
Info: WRAPPING WATERS AROUND PERIODIC BOUNDARIES ON OUTPUT.
Info: WRAPPING ALL CLUSTERS AROUND PERIODIC BOUNDARIES ON OUTPUT.
Info: FIRST LDB TIMESTEP     50
Info: LAST LDB TIMESTEP     -1
Info: HOM BACKGROUND SCALING 1
Info: PME BACKGROUND SCALING 1
Info: MIN ATOMS PER PATCH    40
Info: EMPTY PATCH LOAD       40 ATOMS
Info: INITIAL TEMPERATURE    300
Info: CENTER OF MASS MOVING INITIALLY? NO
Info: DIELECTRIC             1
Info: EXCLUDE                SCALED ONE-FOUR
Info: 1-4 ELECTROSTATICS SCALED BY 0.833333
Info: MODIFIED 1-4 VDW PARAMETERS WILL BE USED
Info: DCD FILENAME           mobley_7758918_equil.dcd
Info: DCD FREQUENCY          100000
Info: DCD FIRST STEP         100000
Info: DCD FILE WILL CONTAIN UNIT CELL DATA
Info: XST FILENAME           mobley_7758918_equil.xst
Info: XST FREQUENCY          100000
Info: NO VELOCITY DCD OUTPUT
Info: NO FORCE DCD OUTPUT
Info: OUTPUT FILENAME        mobley_7758918_equil
Info: BINARY OUTPUT FILES WILL BE USED
Info: RESTART FILENAME       mobley_7758918_equil.restart
Info: RESTART FREQUENCY      100000
Info: BINARY RESTART FILES WILL BE USED
Info: CUTOFF                 9
Info: PAIRLIST DISTANCE      11
Info: PAIRLIST SHRINK RATE   0.01
Info: PAIRLIST GROW RATE     0.01
Info: PAIRLIST TRIGGER       0.3
Info: PAIRLISTS PER CYCLE    2
Info: PAIRLISTS ENABLED
Info: MARGIN                 8
Info: HYDROGEN GROUP CUTOFF  2.5
Info: PATCH DIMENSION        21.5
Info: ENERGY OUTPUT STEPS    100000
Info: ENERGY EVALUATION STEPS    100000
Info: OUTPUT ENERGY PRECISION 4
Info: CROSSTERM ENERGY INCLUDED IN DIHEDRAL
Info: TIMING OUTPUT STEPS    1000000
Info: PRESSURE OUTPUT STEPS  100000
Info: FIXED ATOMS ACTIVE
Info: LANGEVIN DYNAMICS ACTIVE
Info: LANGEVIN TEMPERATURE   30
Info: LANGEVIN USING BBK INTEGRATOR
Info: LANGEVIN DAMPING COEFFICIENT IS 1 INVERSE PS
Info: LANGEVIN DYNAMICS APPLIED TO HYDROGENS
Info: LANGEVIN PISTON PRESSURE CONTROL ACTIVE
Info:        TARGET PRESSURE IS 1.01325 BAR
Info:     OSCILLATION PERIOD IS 50 FS
Info:             DECAY TIME IS 25 FS
Info:     PISTON TEMPERATURE IS 300 K
Info:       PRESSURE CONTROL IS GROUP-BASED
Info:    INITIAL STRAIN RATE IS 0 0 0
Info:       CELL FLUCTUATION IS ISOTROPIC
Info: PARTICLE MESH EWALD (PME) ACTIVE
Info: PME TOLERANCE               1e-06
Info: PME EWALD COEFFICIENT       0.348832
Info: PME INTERPOLATION ORDER     4
Info: PME GRID DIMENSIONS         40 36 36
Info: PME MAXIMUM GRID SPACING    1
Info: FULL ELECTROSTATIC EVALUATION FREQUENCY      2
Info: USING VERLET I (r-RESPA) MTS SCHEME.
Info: C1 SPLITTING OF LONG RANGE ELECTROSTATICS
Info: PLACING ATOMS IN PATCHES BY HYDROGEN GROUPS
Info: RIGID BONDS TO HYDROGEN : ALL
Info:         ERROR TOLERANCE : 1e-08
Info:          MAX ITERATIONS : 100
Info: RIGID WATER USING SETTLE ALGORITHM
Info: RANDOM NUMBER SEED     1743900905
Info: USE HYDROGEN BONDS?    NO
Info: Using AMBER format force field!
Info: AMBER PARM FILE        mobley_7758918.prmtop
Info: COORDINATE PDB         mobley_7758918.pdb
Info: Exclusions will be read from PARM file!
Info: SCNB (VDW SCALING)     2
Info: USING ARITHMETIC MEAN TO COMBINE L-J SIGMA PARAMETERS
Info: BINARY COORDINATES     mobley_7758918_min.coor
Info: SUMMARY OF PARAMETERS:
Info: 8 BONDS
Info: 8 ANGLES
Info:   8 HARMONIC
Info:   0 COSINE-BASED
Info: 9 DIHEDRAL
Info: 0 IMPROPER
Info: 0 CROSSTERM
Info: 0 VDW
Info: 28 VDW_PAIRS
Info: 0 NBTHOLE_PAIRS
Info: STRUCTURE SUMMARY:
Info: 2909 ATOMS
Info: 2908 BONDS
Info: 16 ANGLES
Info: 23 DIHEDRALS
Info: 0 IMPROPERS
Info: 0 CROSSTERMS
Info: 2941 EXCLUSIONS
Info: 11 FIXED ATOMS
Info: 2904 RIGID BONDS
Info: 6 RIGID BONDS BETWEEN FIXED ATOMS
Info: 5796 DEGREES OF FREEDOM
Info: 971 HYDROGEN GROUPS
Info: 4 ATOMS IN LARGEST HYDROGEN GROUP
Info: 971 MIGRATION GROUPS
Info: 4 ATOMS IN LARGEST MIGRATION GROUP
Info: 5 HYDROGEN GROUPS WITH ALL ATOMS FIXED
Info: TOTAL MASS = 17477.5 amu
Info: TOTAL CHARGE = 4.09782e-08 e
Info: MASS DENSITY = 0.67481 g/cm^3
Info: ATOM DENSITY = 0.0676373 atoms/A^3
Info: ADDED 0 IMPLICIT EXCLUSIONS
Info: NONBONDED TABLE R-SQUARED SPACING: 0.0625
Info: NONBONDED TABLE SIZE: 705 POINTS
Info: REMOVING COM VELOCITY -0.0638966 -0.0757002 0.115661
TCL: Running for 100000 steps
ETITLE: TS BOND ANGLE DIHED IMPRP ELECT VDW BOUNDARY MISC KINETIC TOTAL TEMP POTENTIAL TOTAL3 TEMPAVG PRESSURE GPRESSURE VOLUME PRESSAVG GPRESSAVG
ENERGY: 0 0.0000 0.0000 0.0000 0.0000 -13501.1355 2339.6560 0.0000 0.0000 1767.1469 -9394.3326 306.8560 -11161.4795 -9393.9718 306.8560 362.5535 400.2441 43008.8352 362.5535 400.2441
ENERGY: 100000 0.0000 0.0000 0.0000 0.0000 -14133.3932 2458.3897 0.0000 0.0000 171.2134 -11503.7902 29.7303 -11675.0035 -11503.2847 31.0119 322.4407 391.4364 28213.8238 4.5786 4.5020
TCL: Running 100000 steps at 60 kelvin.
TCL: Setting parameter langevinTemp to 60
TCL: Running for 100000 steps
ETITLE: TS BOND ANGLE DIHED IMPRP ELECT VDW BOUNDARY MISC KINETIC TOTAL TEMP POTENTIAL TOTAL3 TEMPAVG PRESSURE GPRESSURE VOLUME PRESSAVG GPRESSAVG
ENERGY: 100000 0.0000 0.0000 0.0000 0.0000 -14133.3932 2458.3897 0.0000 0.0000 171.1250 -11503.8785 29.7150 -11675.0035 -11503.6088 29.7150 333.6877 391.7660 28213.8238 333.6877 391.7660
ENERGY: 200000 0.0000 0.0000 0.0000 0.0000 -13837.3881 2247.1311 0.0000 0.0000 341.6594 -11248.5976 59.3274 -11590.2570 -11247.7396 60.0201 -1070.0147 -996.7748 28189.6296 4.0038 4.0411
TCL: Running 100000 steps at 90 kelvin.
TCL: Setting parameter langevinTemp to 90
TCL: Running for 100000 steps
ETITLE: TS BOND ANGLE DIHED IMPRP ELECT VDW BOUNDARY MISC KINETIC TOTAL TEMP POTENTIAL TOTAL3 TEMPAVG PRESSURE GPRESSURE VOLUME PRESSAVG GPRESSAVG
ENERGY: 200000 0.0000 0.0000 0.0000 0.0000 -13837.3881 2247.1311 0.0000 0.0000 341.4843 -11248.7727 59.2970 -11590.2570 -11248.0345 59.2970 -1060.0244 -996.9963 28189.6296 -1060.0244 -996.9963
ENERGY: 300000 0.0000 0.0000 0.0000 0.0000 -13889.2920 2378.3099 0.0000 0.0000 511.2302 -10999.7519 88.7725 -11510.9821 -10998.4833 89.8521 411.2448 463.9729 27787.1771 4.5644 4.5718
TCL: Running 100000 steps at 120 kelvin.
TCL: Setting parameter langevinTemp to 120
TCL: Running for 100000 steps
ETITLE: TS BOND ANGLE DIHED IMPRP ELECT VDW BOUNDARY MISC KINETIC TOTAL TEMP POTENTIAL TOTAL3 TEMPAVG PRESSURE GPRESSURE VOLUME PRESSAVG GPRESSAVG
ENERGY: 300000 0.0000 0.0000 0.0000 0.0000 -13889.2920 2378.3099 0.0000 0.0000 510.9743 -11000.0079 88.7281 -11510.9821 -10999.0594 88.7281 406.9707 464.0696 27787.1771 406.9707 464.0696
ENERGY: 400000 0.0000 0.0000 0.0000 0.0000 -13678.6208 2279.6231 0.0000 0.0000 699.3682 -10699.6295 121.4417 -11398.9977 -10697.6902 119.9368 -68.7671 12.5910 28031.6159 3.1776 3.1825
TCL: Running 100000 steps at 150 kelvin.
TCL: Setting parameter langevinTemp to 150
TCL: Running for 100000 steps
ETITLE: TS BOND ANGLE DIHED IMPRP ELECT VDW BOUNDARY MISC KINETIC TOTAL TEMP POTENTIAL TOTAL3 TEMPAVG PRESSURE GPRESSURE VOLUME PRESSAVG GPRESSAVG
ENERGY: 400000 0.0000 0.0000 0.0000 0.0000 -13678.6208 2279.6231 0.0000 0.0000 699.0246 -10699.9731 121.3820 -11398.9977 -10698.5925 121.3820 -53.1769 13.3517 28031.6159 -53.1769 13.3517
ENERGY: 500000 0.0000 0.0000 0.0000 0.0000 -13383.4288 2176.9702 0.0000 0.0000 893.9729 -10312.4857 155.2338 -11206.4586 -10311.0479 149.8616 -383.7431 -324.2225 28526.6387 4.0108 4.0144
TCL: Running 100000 steps at 180 kelvin.
TCL: Setting parameter langevinTemp to 180
TCL: Running for 100000 steps
ETITLE: TS BOND ANGLE DIHED IMPRP ELECT VDW BOUNDARY MISC KINETIC TOTAL TEMP POTENTIAL TOTAL3 TEMPAVG PRESSURE GPRESSURE VOLUME PRESSAVG GPRESSAVG
ENERGY: 500000 0.0000 0.0000 0.0000 0.0000 -13383.4288 2176.9702 0.0000 0.0000 893.5382 -10312.9204 155.1583 -11206.4586 -10311.3744 155.1583 -389.4714 -324.9040 28526.6387 -389.4714 -324.9040
ENERGY: 600000 0.0000 0.0000 0.0000 0.0000 -12990.0824 2093.5803 0.0000 0.0000 1026.7852 -9869.7169 178.2960 -10896.5021 -9867.4675 180.2725 50.6452 115.5374 28527.4125 3.4940 3.4674
TCL: Running 100000 steps at 210 kelvin.
TCL: Setting parameter langevinTemp to 210
TCL: Running for 100000 steps
ETITLE: TS BOND ANGLE DIHED IMPRP ELECT VDW BOUNDARY MISC KINETIC TOTAL TEMP POTENTIAL TOTAL3 TEMPAVG PRESSURE GPRESSURE VOLUME PRESSAVG GPRESSAVG
ENERGY: 600000 0.0000 0.0000 0.0000 0.0000 -12990.0824 2093.5803 0.0000 0.0000 1026.2620 -9870.2401 178.2052 -10896.5021 -9867.6420 178.2052 54.5274 116.1996 28527.4125 54.5274 116.1996
ENERGY: 700000 0.0000 0.0000 0.0000 0.0000 -12310.7359 1878.7446 0.0000 0.0000 1216.9063 -9215.0850 211.3096 -10431.9914 -9212.4900 210.2593 153.3077 233.5268 28445.6651 3.9851 3.9625
TCL: Running 100000 steps at 240 kelvin.
TCL: Setting parameter langevinTemp to 240
TCL: Running for 100000 steps
ETITLE: TS BOND ANGLE DIHED IMPRP ELECT VDW BOUNDARY MISC KINETIC TOTAL TEMP POTENTIAL TOTAL3 TEMPAVG PRESSURE GPRESSURE VOLUME PRESSAVG GPRESSAVG
ENERGY: 700000 0.0000 0.0000 0.0000 0.0000 -12310.7359 1878.7446 0.0000 0.0000 1216.2856 -9215.7057 211.2018 -10431.9914 -9213.5621 211.2018 149.3820 233.7025 28445.6651 149.3820 233.7025
ENERGY: 800000 0.0000 0.0000 0.0000 0.0000 -11718.5405 1700.2156 0.0000 0.0000 1376.1703 -8642.1546 238.9649 -10018.3249 -8640.5330 239.8084 44.3057 156.8021 28602.8982 3.5260 3.5346
TCL: Running 100000 steps at 270 kelvin.
TCL: Setting parameter langevinTemp to 270
TCL: Running for 100000 steps
ETITLE: TS BOND ANGLE DIHED IMPRP ELECT VDW BOUNDARY MISC KINETIC TOTAL TEMP POTENTIAL TOTAL3 TEMPAVG PRESSURE GPRESSURE VOLUME PRESSAVG GPRESSAVG
ENERGY: 800000 0.0000 0.0000 0.0000 0.0000 -11718.5405 1700.2156 0.0000 0.0000 1375.4551 -8642.8698 238.8407 -10018.3249 -8640.3227 238.8407 70.7360 154.9995 28602.8982 70.7360 154.9995
ENERGY: 900000 0.0000 0.0000 0.0000 0.0000 -11101.9027 1487.1438 0.0000 0.0000 1590.4220 -8024.3369 276.1687 -9614.7589 -8019.0996 270.4324 -545.5096 -486.9477 29304.3872 3.2835 3.1713
TCL: Running 1000000 steps at 300 kelvin.
TCL: Setting parameter langevinTemp to 300
TCL: Running for 1000000 steps
ETITLE: TS BOND ANGLE DIHED IMPRP ELECT VDW BOUNDARY MISC KINETIC TOTAL TEMP POTENTIAL TOTAL3 TEMPAVG PRESSURE GPRESSURE VOLUME PRESSAVG GPRESSAVG
ENERGY: 900000 0.0000 0.0000 0.0000 0.0000 -11101.9027 1487.1438 0.0000 0.0000 1589.6376 -8025.1213 276.0324 -9614.7589 -8022.2904 276.0324 -575.5934 -485.0317 29304.3872 -575.5934 -485.0317
ENERGY: 1100000 0.0000 0.0000 0.0000 0.0000 -10662.4238 1437.4367 0.0000 0.0000 1736.5515 -7488.4356 301.5433 -9224.9871 -7484.1396 300.3594 -52.2372 98.3183 30098.3087 3.1410 2.9978
ENERGY: 1300000 0.0000 0.0000 0.0000 0.0000 -10662.6243 1464.0111 0.0000 0.0000 1756.4317 -7442.1815 304.9954 -9198.6132 -7438.2940 300.6141 360.9265 451.9743 29990.3893 2.3117 2.4339
ENERGY: 1500000 0.0000 0.0000 0.0000 0.0000 -10632.0420 1410.6389 0.0000 0.0000 1741.5965 -7479.8066 302.4193 -9221.4031 -7475.3476 300.5721 133.4886 162.4656 29745.3694 4.3152 4.0438
ENERGY: 1700000 0.0000 0.0000 0.0000 0.0000 -10567.7171 1368.5833 0.0000 0.0000 1736.5561 -7462.5777 301.5441 -9199.1338 -7460.4534 300.3055 -142.0993 -41.2621 29801.1690 3.1026 3.0575
ENERGY: 1900000 0.0000 0.0000 0.0000 0.0000 -10659.1384 1383.7339 0.0000 0.0000 1683.9901 -7591.4144 292.4163 -9275.4045 -7589.7702 301.0019 -551.3295 -464.4436 29995.4565 2.8352 2.7863
TCL: Exiting due to exit command.
