Info: SIMULATION PARAMETERS:
Info: TIMESTEP               2
Info: NUMBER OF STEPS        0
Info: STEPS PER CYCLE        10
Info: PERIODIC CELL BASIS 1  36.005 0 0
Info: PERIODIC CELL BASIS 2  0 35.779 0
Info: PERIODIC CELL BASIS 3  0 0 34.471
Info: PERIODIC CELL CENTER   0 0 0
Info: WRAPPING WATERS AROUND PERIODIC BOUNDARIES ON OUTPUT.
Info: WRAPPING ALL CLUSTERS AROUND PERIODIC BOUNDARIES ON OUTPUT.
Info: FIRST LDB TIMESTEP     50
Info: LAST LDB TIMESTEP     -1
Info: HOM BACKGROUND SCALING 1
Info: PME BACKGROUND SCALING 1
Info: MIN ATOMS PER PATCH    40
Info: EMPTY PATCH LOAD       40 ATOMS
Info: INITIAL TEMPERATURE    300
Info: CENTER OF MASS MOVING INITIALLY? NO
Info: DIELECTRIC             1
Info: EXCLUDE                SCALED ONE-FOUR
Info: 1-4 ELECTROSTATICS SCALED BY 0.833333
Info: MODIFIED 1-4 VDW PARAMETERS WILL BE USED
Info: DCD FILENAME           mobley_9434451_equil.dcd
Info: DCD FREQUENCY          100000
Info: DCD FIRST STEP         100000
Info: DCD FILE WILL CONTAIN UNIT CELL DATA
Info: XST FILENAME           mobley_9434451_equil.xst
Info: XST FREQUENCY          100000
Info: NO VELOCITY DCD OUTPUT
Info: NO FORCE DCD OUTPUT
Info: OUTPUT FILENAME        mobley_9434451_equil
Info: BINARY OUTPUT FILES WILL BE USED
Info: RESTART FILENAME       mobley_9434451_equil.restart
Info: RESTART FREQUENCY      100000
Info: BINARY RESTART FILES WILL BE USED
Info: CUTOFF                 9
Info: PAIRLIST DISTANCE      11
Info: PAIRLIST SHRINK RATE   0.01
Info: PAIRLIST GROW RATE     0.01
Info: PAIRLIST TRIGGER       0.3
Info: PAIRLISTS PER CYCLE    2
Info: PAIRLISTS ENABLED
Info: MARGIN                 8
Info: HYDROGEN GROUP CUTOFF  2.5
Info: PATCH DIMENSION        21.5
Info: ENERGY OUTPUT STEPS    100000
Info: ENERGY EVALUATION STEPS    100000
Info: OUTPUT ENERGY PRECISION 4
Info: CROSSTERM ENERGY INCLUDED IN DIHEDRAL
Info: TIMING OUTPUT STEPS    1000000
Info: PRESSURE OUTPUT STEPS  100000
Info: FIXED ATOMS ACTIVE
Info: LANGEVIN DYNAMICS ACTIVE
Info: LANGEVIN TEMPERATURE   30
Info: LANGEVIN USING BBK INTEGRATOR
Info: LANGEVIN DAMPING COEFFICIENT IS 1 INVERSE PS
Info: LANGEVIN DYNAMICS APPLIED TO HYDROGENS
Info: LANGEVIN PISTON PRESSURE CONTROL ACTIVE
Info:        TARGET PRESSURE IS 1.01325 BAR
Info:     OSCILLATION PERIOD IS 50 FS
Info:             DECAY TIME IS 25 FS
Info:     PISTON TEMPERATURE IS 300 K
Info:       PRESSURE CONTROL IS GROUP-BASED
Info:    INITIAL STRAIN RATE IS 0 0 0
Info:       CELL FLUCTUATION IS ISOTROPIC
Info: PARTICLE MESH EWALD (PME) ACTIVE
Info: PME TOLERANCE               1e-06
Info: PME EWALD COEFFICIENT       0.348832
Info: PME INTERPOLATION ORDER     4
Info: PME GRID DIMENSIONS         40 36 36
Info: PME MAXIMUM GRID SPACING    1
Info: FULL ELECTROSTATIC EVALUATION FREQUENCY      2
Info: USING VERLET I (r-RESPA) MTS SCHEME.
Info: C1 SPLITTING OF LONG RANGE ELECTROSTATICS
Info: PLACING ATOMS IN PATCHES BY HYDROGEN GROUPS
Info: RIGID BONDS TO HYDROGEN : ALL
Info:         ERROR TOLERANCE : 1e-08
Info:          MAX ITERATIONS : 100
Info: RIGID WATER USING SETTLE ALGORITHM
Info: RANDOM NUMBER SEED     1743685888
Info: USE HYDROGEN BONDS?    NO
Info: Using AMBER format force field!
Info: AMBER PARM FILE        mobley_9434451.prmtop
Info: COORDINATE PDB         mobley_9434451.pdb
Info: Exclusions will be read from PARM file!
Info: SCNB (VDW SCALING)     2
Info: USING ARITHMETIC MEAN TO COMBINE L-J SIGMA PARAMETERS
Info: BINARY COORDINATES     mobley_9434451_min.coor
Info: SUMMARY OF PARAMETERS:
Info: 6 BONDS
Info: 6 ANGLES
Info:   6 HARMONIC
Info:   0 COSINE-BASED
Info: 4 DIHEDRAL
Info: 0 IMPROPER
Info: 0 CROSSTERM
Info: 0 VDW
Info: 21 VDW_PAIRS
Info: 0 NBTHOLE_PAIRS
Info: STRUCTURE SUMMARY:
Info: 2915 ATOMS
Info: 2914 BONDS
Info: 18 ANGLES
Info: 24 DIHEDRALS
Info: 0 IMPROPERS
Info: 0 CROSSTERMS
Info: 2950 EXCLUSIONS
Info: 11 FIXED ATOMS
Info: 2911 RIGID BONDS
Info: 7 RIGID BONDS BETWEEN FIXED ATOMS
Info: 5808 DEGREES OF FREEDOM
Info: 972 HYDROGEN GROUPS
Info: 4 ATOMS IN LARGEST HYDROGEN GROUP
Info: 972 MIGRATION GROUPS
Info: 4 ATOMS IN LARGEST MIGRATION GROUP
Info: 4 HYDROGEN GROUPS WITH ALL ATOMS FIXED
Info: TOTAL MASS = 17562.5 amu
Info: TOTAL CHARGE = -0.000299979 e
Info: MASS DENSITY = 0.65675 g/cm^3
Info: ATOM DENSITY = 0.0656438 atoms/A^3
Info: ADDED 0 IMPLICIT EXCLUSIONS
Info: NONBONDED TABLE R-SQUARED SPACING: 0.0625
Info: NONBONDED TABLE SIZE: 705 POINTS
Info: REMOVING COM VELOCITY 0.00967725 0.000551095 -0.0789802
TCL: Running for 100000 steps
ETITLE: TS BOND ANGLE DIHED IMPRP ELECT VDW BOUNDARY MISC KINETIC TOTAL TEMP POTENTIAL TOTAL3 TEMPAVG PRESSURE GPRESSURE VOLUME PRESSAVG GPRESSAVG
ENERGY: 0 0.0000 0.0000 0.0000 0.0000 -13500.7852 2402.5358 0.0000 0.0000 1757.2927 -9340.9567 304.5144 -11098.2494 -9340.6391 304.5144 696.4613 728.4736 44406.3314 696.4613 728.4736
ENERGY: 100000 0.0000 0.0000 0.0000 0.0000 -14033.0213 2438.8419 0.0000 0.0000 175.9667 -11418.2127 30.4926 -11594.1794 -11417.4777 30.9555 37.6262 71.6664 28988.5637 2.9267 2.9469
TCL: Running 100000 steps at 60 kelvin.
TCL: Setting parameter langevinTemp to 60
TCL: Running for 100000 steps
ETITLE: TS BOND ANGLE DIHED IMPRP ELECT VDW BOUNDARY MISC KINETIC TOTAL TEMP POTENTIAL TOTAL3 TEMPAVG PRESSURE GPRESSURE VOLUME PRESSAVG GPRESSAVG
ENERGY: 100000 0.0000 0.0000 0.0000 0.0000 -14033.0213 2438.8419 0.0000 0.0000 175.8795 -11418.2999 30.4775 -11594.1794 -11417.8794 30.4775 20.2731 71.8778 28988.5637 20.2731 71.8778
ENERGY: 200000 0.0000 0.0000 0.0000 0.0000 -13911.6352 2404.7693 0.0000 0.0000 352.1674 -11154.6985 61.0257 -11506.8660 -11154.1250 60.0152 163.3364 211.9617 28848.4823 2.6844 2.6580
TCL: Running 100000 steps at 90 kelvin.
TCL: Setting parameter langevinTemp to 90
TCL: Running for 100000 steps
ETITLE: TS BOND ANGLE DIHED IMPRP ELECT VDW BOUNDARY MISC KINETIC TOTAL TEMP POTENTIAL TOTAL3 TEMPAVG PRESSURE GPRESSURE VOLUME PRESSAVG GPRESSAVG
ENERGY: 200000 0.0000 0.0000 0.0000 0.0000 -13911.6352 2404.7693 0.0000 0.0000 351.9872 -11154.8788 60.9945 -11506.8660 -11154.2622 60.9945 150.1315 211.5993 28848.4823 150.1315 211.5993
ENERGY: 300000 0.0000 0.0000 0.0000 0.0000 -13605.7611 2192.9052 0.0000 0.0000 515.6025 -10897.2535 89.3468 -11412.8559 -10895.8142 90.0363 -1179.3268 -1074.7905 28507.2228 5.0071 4.9846
TCL: Running 100000 steps at 120 kelvin.
TCL: Setting parameter langevinTemp to 120
TCL: Running for 100000 steps
ETITLE: TS BOND ANGLE DIHED IMPRP ELECT VDW BOUNDARY MISC KINETIC TOTAL TEMP POTENTIAL TOTAL3 TEMPAVG PRESSURE GPRESSURE VOLUME PRESSAVG GPRESSAVG
ENERGY: 300000 0.0000 0.0000 0.0000 0.0000 -13605.7611 2192.9052 0.0000 0.0000 515.3384 -10897.5176 89.3010 -11412.8559 -10896.3613 89.3010 -1135.0693 -1074.7449 28507.2228 -1135.0693 -1074.7449
ENERGY: 400000 0.0000 0.0000 0.0000 0.0000 -13675.9555 2350.9012 0.0000 0.0000 689.5334 -10635.5209 119.4866 -11325.0542 -10633.8137 120.0341 397.0766 454.3720 28403.8317 3.3279 3.3285
TCL: Running 100000 steps at 150 kelvin.
TCL: Setting parameter langevinTemp to 150
TCL: Running for 100000 steps
ETITLE: TS BOND ANGLE DIHED IMPRP ELECT VDW BOUNDARY MISC KINETIC TOTAL TEMP POTENTIAL TOTAL3 TEMPAVG PRESSURE GPRESSURE VOLUME PRESSAVG GPRESSAVG
ENERGY: 400000 0.0000 0.0000 0.0000 0.0000 -13675.9555 2350.9012 0.0000 0.0000 689.1960 -10635.8582 119.4281 -11325.0542 -10634.2733 119.4281 393.1225 454.4673 28403.8317 393.1225 454.4673
ENERGY: 500000 0.0000 0.0000 0.0000 0.0000 -13429.4137 2272.3578 0.0000 0.0000 860.9766 -10296.0792 149.1953 -11157.0558 -10293.3337 149.5016 295.2653 356.9853 28662.8452 4.9924 4.9669
TCL: Running 100000 steps at 180 kelvin.
TCL: Setting parameter langevinTemp to 180
TCL: Running for 100000 steps
ETITLE: TS BOND ANGLE DIHED IMPRP ELECT VDW BOUNDARY MISC KINETIC TOTAL TEMP POTENTIAL TOTAL3 TEMPAVG PRESSURE GPRESSURE VOLUME PRESSAVG GPRESSAVG
ENERGY: 500000 0.0000 0.0000 0.0000 0.0000 -13429.4137 2272.3578 0.0000 0.0000 860.5513 -10296.5046 149.1216 -11157.0558 -10294.6579 149.1216 301.2343 356.5826 28662.8452 301.2343 356.5826
ENERGY: 600000 0.0000 0.0000 0.0000 0.0000 -12867.5484 1999.5221 0.0000 0.0000 1054.3478 -9813.6785 182.7038 -10868.0263 -9810.8254 179.8615 -697.8189 -571.3390 28387.5967 2.7305 2.5373
TCL: Running 100000 steps at 210 kelvin.
TCL: Setting parameter langevinTemp to 210
TCL: Running for 100000 steps
ETITLE: TS BOND ANGLE DIHED IMPRP ELECT VDW BOUNDARY MISC KINETIC TOTAL TEMP POTENTIAL TOTAL3 TEMPAVG PRESSURE GPRESSURE VOLUME PRESSAVG GPRESSAVG
ENERGY: 600000 0.0000 0.0000 0.0000 0.0000 -12867.5484 1999.5221 0.0000 0.0000 1053.8526 -9814.1737 182.6180 -10868.0263 -9812.0466 182.6180 -638.9200 -570.9003 28387.5967 -638.9200 -570.9003
ENERGY: 700000 0.0000 0.0000 0.0000 0.0000 -12423.6409 1993.9804 0.0000 0.0000 1245.4966 -9184.1639 215.8273 -10429.6605 -9181.8937 209.8409 995.4925 1080.0900 28184.2857 4.2601 4.2465
TCL: Running 100000 steps at 240 kelvin.
TCL: Setting parameter langevinTemp to 240
TCL: Running for 100000 steps
ETITLE: TS BOND ANGLE DIHED IMPRP ELECT VDW BOUNDARY MISC KINETIC TOTAL TEMP POTENTIAL TOTAL3 TEMPAVG PRESSURE GPRESSURE VOLUME PRESSAVG GPRESSAVG
ENERGY: 700000 0.0000 0.0000 0.0000 0.0000 -12423.6409 1993.9804 0.0000 0.0000 1244.8872 -9184.7733 215.7217 -10429.6605 -9182.3574 215.7217 996.1610 1080.2916 28184.2857 996.1610 1080.2916
ENERGY: 800000 0.0000 0.0000 0.0000 0.0000 -11722.9306 1714.5522 0.0000 0.0000 1362.1433 -8646.2351 236.0405 -10008.3784 -8643.7816 239.6009 -44.8905 83.0546 28754.6397 3.6537 3.5951
TCL: Running 100000 steps at 270 kelvin.
TCL: Setting parameter langevinTemp to 270
TCL: Running for 100000 steps
ETITLE: TS BOND ANGLE DIHED IMPRP ELECT VDW BOUNDARY MISC KINETIC TOTAL TEMP POTENTIAL TOTAL3 TEMPAVG PRESSURE GPRESSURE VOLUME PRESSAVG GPRESSAVG
ENERGY: 800000 0.0000 0.0000 0.0000 0.0000 -11722.9306 1714.5522 0.0000 0.0000 1361.4315 -8646.9469 235.9172 -10008.3784 -8644.7211 235.9172 6.3982 81.7083 28754.6397 6.3982 81.7083
ENERGY: 900000 0.0000 0.0000 0.0000 0.0000 -11086.6939 1529.9412 0.0000 0.0000 1582.0508 -7974.7019 274.1474 -9556.7527 -7972.9316 270.2844 -148.7362 -71.2225 29089.2740 3.1745 2.9638
TCL: Running 1000000 steps at 300 kelvin.
TCL: Setting parameter langevinTemp to 300
TCL: Running for 1000000 steps
ETITLE: TS BOND ANGLE DIHED IMPRP ELECT VDW BOUNDARY MISC KINETIC TOTAL TEMP POTENTIAL TOTAL3 TEMPAVG PRESSURE GPRESSURE VOLUME PRESSAVG GPRESSAVG
ENERGY: 900000 0.0000 0.0000 0.0000 0.0000 -11086.6939 1529.9412 0.0000 0.0000 1581.2561 -7975.4966 274.0097 -9556.7527 -7972.8281 274.0097 -147.2082 -73.1306 29089.2740 -147.2082 -73.1306
ENERGY: 1100000 0.0000 0.0000 0.0000 0.0000 -10526.6386 1365.6465 0.0000 0.0000 1751.4578 -7409.5343 303.5033 -9160.9921 -7406.5085 300.2479 -612.6401 -501.4457 30262.7984 3.9225 3.8460
ENERGY: 1300000 0.0000 0.0000 0.0000 0.0000 -10564.6515 1394.4122 0.0000 0.0000 1756.9087 -7413.3306 304.4479 -9170.2393 -7410.5177 300.2244 -187.2329 -39.5897 29738.7966 4.0309 3.7685
ENERGY: 1500000 0.0000 0.0000 0.0000 0.0000 -10580.1145 1473.3062 0.0000 0.0000 1722.1679 -7384.6404 298.4278 -9106.8083 -7382.5045 301.0243 561.7537 656.3701 29921.7629 3.5625 3.4139
ENERGY: 1700000 0.0000 0.0000 0.0000 0.0000 -10701.8567 1465.8410 0.0000 0.0000 1685.9857 -7550.0300 292.1579 -9236.0156 -7547.8593 300.5598 262.0201 312.3446 29755.6000 3.3362 3.4287
ENERGY: 1900000 0.0000 0.0000 0.0000 0.0000 -10535.1238 1387.6138 0.0000 0.0000 1697.8949 -7449.6150 294.2216 -9147.5100 -7444.0279 301.0882 -207.8222 -135.1314 30019.3074 3.7974 3.8999
TCL: Exiting due to exit command.
