Info: SIMULATION PARAMETERS:
Info: TIMESTEP               2
Info: NUMBER OF STEPS        0
Info: STEPS PER CYCLE        10
Info: PERIODIC CELL BASIS 1  36.592 0 0
Info: PERIODIC CELL BASIS 2  0 35.411 0
Info: PERIODIC CELL BASIS 3  0 0 33.876
Info: PERIODIC CELL CENTER   0 0 0
Info: WRAPPING WATERS AROUND PERIODIC BOUNDARIES ON OUTPUT.
Info: WRAPPING ALL CLUSTERS AROUND PERIODIC BOUNDARIES ON OUTPUT.
Info: FIRST LDB TIMESTEP     50
Info: LAST LDB TIMESTEP     -1
Info: HOM BACKGROUND SCALING 1
Info: PME BACKGROUND SCALING 1
Info: MIN ATOMS PER PATCH    40
Info: EMPTY PATCH LOAD       40 ATOMS
Info: INITIAL TEMPERATURE    300
Info: CENTER OF MASS MOVING INITIALLY? NO
Info: DIELECTRIC             1
Info: EXCLUDE                SCALED ONE-FOUR
Info: 1-4 ELECTROSTATICS SCALED BY 0.833333
Info: MODIFIED 1-4 VDW PARAMETERS WILL BE USED
Info: DCD FILENAME           mobley_1963873_equil.dcd
Info: DCD FREQUENCY          100000
Info: DCD FIRST STEP         100000
Info: DCD FILE WILL CONTAIN UNIT CELL DATA
Info: XST FILENAME           mobley_1963873_equil.xst
Info: XST FREQUENCY          100000
Info: NO VELOCITY DCD OUTPUT
Info: NO FORCE DCD OUTPUT
Info: OUTPUT FILENAME        mobley_1963873_equil
Info: BINARY OUTPUT FILES WILL BE USED
Info: RESTART FILENAME       mobley_1963873_equil.restart
Info: RESTART FREQUENCY      100000
Info: BINARY RESTART FILES WILL BE USED
Info: CUTOFF                 9
Info: PAIRLIST DISTANCE      11
Info: PAIRLIST SHRINK RATE   0.01
Info: PAIRLIST GROW RATE     0.01
Info: PAIRLIST TRIGGER       0.3
Info: PAIRLISTS PER CYCLE    2
Info: PAIRLISTS ENABLED
Info: MARGIN                 8
Info: HYDROGEN GROUP CUTOFF  2.5
Info: PATCH DIMENSION        21.5
Info: ENERGY OUTPUT STEPS    100000
Info: ENERGY EVALUATION STEPS    100000
Info: OUTPUT ENERGY PRECISION 4
Info: CROSSTERM ENERGY INCLUDED IN DIHEDRAL
Info: TIMING OUTPUT STEPS    1000000
Info: PRESSURE OUTPUT STEPS  100000
Info: FIXED ATOMS ACTIVE
Info: LANGEVIN DYNAMICS ACTIVE
Info: LANGEVIN TEMPERATURE   30
Info: LANGEVIN USING BBK INTEGRATOR
Info: LANGEVIN DAMPING COEFFICIENT IS 1 INVERSE PS
Info: LANGEVIN DYNAMICS APPLIED TO HYDROGENS
Info: LANGEVIN PISTON PRESSURE CONTROL ACTIVE
Info:        TARGET PRESSURE IS 1.01325 BAR
Info:     OSCILLATION PERIOD IS 50 FS
Info:             DECAY TIME IS 25 FS
Info:     PISTON TEMPERATURE IS 300 K
Info:       PRESSURE CONTROL IS GROUP-BASED
Info:    INITIAL STRAIN RATE IS 0 0 0
Info:       CELL FLUCTUATION IS ISOTROPIC
Info: PARTICLE MESH EWALD (PME) ACTIVE
Info: PME TOLERANCE               1e-06
Info: PME EWALD COEFFICIENT       0.348832
Info: PME INTERPOLATION ORDER     4
Info: PME GRID DIMENSIONS         40 36 36
Info: PME MAXIMUM GRID SPACING    1
Info: FULL ELECTROSTATIC EVALUATION FREQUENCY      2
Info: USING VERLET I (r-RESPA) MTS SCHEME.
Info: C1 SPLITTING OF LONG RANGE ELECTROSTATICS
Info: PLACING ATOMS IN PATCHES BY HYDROGEN GROUPS
Info: RIGID BONDS TO HYDROGEN : ALL
Info:         ERROR TOLERANCE : 1e-08
Info:          MAX ITERATIONS : 100
Info: RIGID WATER USING SETTLE ALGORITHM
Info: RANDOM NUMBER SEED     1743684339
Info: USE HYDROGEN BONDS?    NO
Info: Using AMBER format force field!
Info: AMBER PARM FILE        mobley_1963873.prmtop
Info: COORDINATE PDB         mobley_1963873.pdb
Info: Exclusions will be read from PARM file!
Info: SCNB (VDW SCALING)     2
Info: USING ARITHMETIC MEAN TO COMBINE L-J SIGMA PARAMETERS
Info: BINARY COORDINATES     mobley_1963873_min.coor
Info: SUMMARY OF PARAMETERS:
Info: 9 BONDS
Info: 10 ANGLES
Info:   10 HARMONIC
Info:   0 COSINE-BASED
Info: 9 DIHEDRAL
Info: 0 IMPROPER
Info: 0 CROSSTERM
Info: 0 VDW
Info: 45 VDW_PAIRS
Info: 0 NBTHOLE_PAIRS
Info: STRUCTURE SUMMARY:
Info: 2913 ATOMS
Info: 2912 BONDS
Info: 18 ANGLES
Info: 26 DIHEDRALS
Info: 0 IMPROPERS
Info: 0 CROSSTERMS
Info: 2946 EXCLUSIONS
Info: 12 FIXED ATOMS
Info: 2908 RIGID BONDS
Info: 7 RIGID BONDS BETWEEN FIXED ATOMS
Info: 5802 DEGREES OF FREEDOM
Info: 972 HYDROGEN GROUPS
Info: 4 ATOMS IN LARGEST HYDROGEN GROUP
Info: 972 MIGRATION GROUPS
Info: 4 ATOMS IN LARGEST MIGRATION GROUP
Info: 5 HYDROGEN GROUPS WITH ALL ATOMS FIXED
Info: TOTAL MASS = 17494.6 amu
Info: TOTAL CHARGE = -0.000199951 e
Info: MASS DENSITY = 0.661829 g/cm^3
Info: ATOM DENSITY = 0.0663627 atoms/A^3
Info: ADDED 0 IMPLICIT EXCLUSIONS
Info: NONBONDED TABLE R-SQUARED SPACING: 0.0625
Info: NONBONDED TABLE SIZE: 705 POINTS
Info: REMOVING COM VELOCITY 0.10215 0.178039 0.194068
TCL: Running for 100000 steps
ETITLE: TS BOND ANGLE DIHED IMPRP ELECT VDW BOUNDARY MISC KINETIC TOTAL TEMP POTENTIAL TOTAL3 TEMPAVG PRESSURE GPRESSURE VOLUME PRESSAVG GPRESSAVG
ENERGY: 0 0.0000 0.0000 0.0000 0.0000 -13526.2024 2362.8672 0.0000 0.0000 1680.2412 -9483.0940 291.4636 -11163.3352 -9482.7715 291.4636 473.8020 506.9404 43895.1425 473.8020 506.9404
ENERGY: 100000 0.0000 0.0000 0.0000 0.0000 -14207.0433 2557.3875 0.0000 0.0000 168.5079 -11481.1479 29.2303 -11649.6558 -11480.7940 30.8752 1061.4123 1113.6880 28943.7900 4.7273 4.7266
TCL: Running 100000 steps at 60 kelvin.
TCL: Setting parameter langevinTemp to 60
TCL: Running for 100000 steps
ETITLE: TS BOND ANGLE DIHED IMPRP ELECT VDW BOUNDARY MISC KINETIC TOTAL TEMP POTENTIAL TOTAL3 TEMPAVG PRESSURE GPRESSURE VOLUME PRESSAVG GPRESSAVG
ENERGY: 100000 0.0000 0.0000 0.0000 0.0000 -14207.0433 2557.3875 0.0000 0.0000 168.4238 -11481.2320 29.2157 -11649.6558 -11480.9450 29.2157 1050.9782 1113.6570 28943.7900 1050.9782 1113.6570
ENERGY: 200000 0.0000 0.0000 0.0000 0.0000 -13978.4756 2374.5666 0.0000 0.0000 345.7124 -11258.1965 59.9691 -11603.9090 -11257.4403 59.9648 -18.4393 20.5649 28344.2382 2.9927 2.9311
TCL: Running 100000 steps at 90 kelvin.
TCL: Setting parameter langevinTemp to 90
TCL: Running for 100000 steps
ETITLE: TS BOND ANGLE DIHED IMPRP ELECT VDW BOUNDARY MISC KINETIC TOTAL TEMP POTENTIAL TOTAL3 TEMPAVG PRESSURE GPRESSURE VOLUME PRESSAVG GPRESSAVG
ENERGY: 200000 0.0000 0.0000 0.0000 0.0000 -13978.4756 2374.5666 0.0000 0.0000 345.5418 -11258.3672 59.9395 -11603.9090 -11257.7694 59.9395 -28.0702 20.8151 28344.2382 -28.0702 20.8151
ENERGY: 300000 0.0000 0.0000 0.0000 0.0000 -13925.9881 2401.2305 0.0000 0.0000 507.4356 -11017.3220 88.0225 -11524.7576 -11016.4740 89.8814 630.1134 660.0599 28039.0276 5.1630 5.0978
TCL: Running 100000 steps at 120 kelvin.
TCL: Setting parameter langevinTemp to 120
TCL: Running for 100000 steps
ETITLE: TS BOND ANGLE DIHED IMPRP ELECT VDW BOUNDARY MISC KINETIC TOTAL TEMP POTENTIAL TOTAL3 TEMPAVG PRESSURE GPRESSURE VOLUME PRESSAVG GPRESSAVG
ENERGY: 300000 0.0000 0.0000 0.0000 0.0000 -13925.9881 2401.2305 0.0000 0.0000 507.1811 -11017.5765 87.9783 -11524.7576 -11016.5411 87.9783 610.4869 659.8902 28039.0276 610.4869 659.8902
ENERGY: 400000 0.0000 0.0000 0.0000 0.0000 -13581.5102 2210.9169 0.0000 0.0000 694.2055 -10676.3878 120.4206 -11370.5933 -10674.3046 120.0985 -737.3459 -668.1900 28691.6337 4.1647 4.0923
TCL: Running 100000 steps at 150 kelvin.
TCL: Setting parameter langevinTemp to 150
TCL: Running for 100000 steps
ETITLE: TS BOND ANGLE DIHED IMPRP ELECT VDW BOUNDARY MISC KINETIC TOTAL TEMP POTENTIAL TOTAL3 TEMPAVG PRESSURE GPRESSURE VOLUME PRESSAVG GPRESSAVG
ENERGY: 400000 0.0000 0.0000 0.0000 0.0000 -13581.5102 2210.9169 0.0000 0.0000 693.8515 -10676.7418 120.3592 -11370.5933 -10675.3265 120.3592 -732.5422 -667.8352 28691.6337 -732.5422 -667.8352
ENERGY: 500000 0.0000 0.0000 0.0000 0.0000 -13392.2207 2169.4028 0.0000 0.0000 833.2137 -10389.6042 144.5337 -11222.8180 -10387.9894 150.0376 -574.2904 -528.9694 28662.8152 3.4501 3.6018
TCL: Running 100000 steps at 180 kelvin.
TCL: Setting parameter langevinTemp to 180
TCL: Running for 100000 steps
ETITLE: TS BOND ANGLE DIHED IMPRP ELECT VDW BOUNDARY MISC KINETIC TOTAL TEMP POTENTIAL TOTAL3 TEMPAVG PRESSURE GPRESSURE VOLUME PRESSAVG GPRESSAVG
ENERGY: 500000 0.0000 0.0000 0.0000 0.0000 -13392.2207 2169.4028 0.0000 0.0000 832.7811 -10390.0369 144.4586 -11222.8180 -10388.5891 144.4586 -571.2158 -528.4451 28662.8152 -571.2158 -528.4451
ENERGY: 600000 0.0000 0.0000 0.0000 0.0000 -12891.5232 1958.0088 0.0000 0.0000 1019.0534 -9914.4610 176.7704 -10933.5144 -9912.2120 180.0409 -1251.5997 -1220.4580 28856.8857 3.0978 3.0779
TCL: Running 100000 steps at 210 kelvin.
TCL: Setting parameter langevinTemp to 210
TCL: Running for 100000 steps
ETITLE: TS BOND ANGLE DIHED IMPRP ELECT VDW BOUNDARY MISC KINETIC TOTAL TEMP POTENTIAL TOTAL3 TEMPAVG PRESSURE GPRESSURE VOLUME PRESSAVG GPRESSAVG
ENERGY: 600000 0.0000 0.0000 0.0000 0.0000 -12891.5232 1958.0088 0.0000 0.0000 1018.5413 -9914.9732 176.6816 -10933.5144 -9912.8531 176.6816 -1273.7423 -1221.1944 28856.8857 -1273.7423 -1221.1944
ENERGY: 700000 0.0000 0.0000 0.0000 0.0000 -12391.4025 1891.9271 0.0000 0.0000 1230.5874 -9268.8880 213.4642 -10499.4754 -9267.0759 209.8760 146.1733 266.1253 28276.2808 3.9975 4.0025
TCL: Running 100000 steps at 240 kelvin.
TCL: Setting parameter langevinTemp to 240
TCL: Running for 100000 steps
ETITLE: TS BOND ANGLE DIHED IMPRP ELECT VDW BOUNDARY MISC KINETIC TOTAL TEMP POTENTIAL TOTAL3 TEMPAVG PRESSURE GPRESSURE VOLUME PRESSAVG GPRESSAVG
ENERGY: 700000 0.0000 0.0000 0.0000 0.0000 -12391.4025 1891.9271 0.0000 0.0000 1229.9849 -9269.4905 213.3597 -10499.4754 -9267.4865 213.3597 169.2371 265.1324 28276.2808 169.2371 265.1324
ENERGY: 800000 0.0000 0.0000 0.0000 0.0000 -11646.8467 1697.6855 0.0000 0.0000 1419.6147 -8529.5466 246.2539 -9949.1612 -8526.8001 239.8242 69.7918 171.6400 28924.7041 2.6863 2.6423
TCL: Running 100000 steps at 270 kelvin.
TCL: Setting parameter langevinTemp to 270
TCL: Running for 100000 steps
ETITLE: TS BOND ANGLE DIHED IMPRP ELECT VDW BOUNDARY MISC KINETIC TOTAL TEMP POTENTIAL TOTAL3 TEMPAVG PRESSURE GPRESSURE VOLUME PRESSAVG GPRESSAVG
ENERGY: 800000 0.0000 0.0000 0.0000 0.0000 -11646.8467 1697.6855 0.0000 0.0000 1418.9357 -8530.2255 246.1361 -9949.1612 -8527.8096 246.1361 95.0141 172.3012 28924.7041 95.0141 172.3012
ENERGY: 900000 0.0000 0.0000 0.0000 0.0000 -11177.4685 1529.2783 0.0000 0.0000 1582.1736 -8066.0166 274.4522 -9648.1902 -8065.1439 270.3764 -410.6464 -266.9539 29219.7402 3.6537 3.8056
TCL: Running 1000000 steps at 300 kelvin.
TCL: Setting parameter langevinTemp to 300
TCL: Running for 1000000 steps
ETITLE: TS BOND ANGLE DIHED IMPRP ELECT VDW BOUNDARY MISC KINETIC TOTAL TEMP POTENTIAL TOTAL3 TEMPAVG PRESSURE GPRESSURE VOLUME PRESSAVG GPRESSAVG
ENERGY: 900000 0.0000 0.0000 0.0000 0.0000 -11177.4685 1529.2783 0.0000 0.0000 1581.3721 -8066.8180 274.3132 -9648.1902 -8063.6693 274.3132 -353.7083 -269.4231 29219.7402 -353.7083 -269.4231
ENERGY: 1100000 0.0000 0.0000 0.0000 0.0000 -10668.0898 1482.4333 0.0000 0.0000 1749.2433 -7436.4132 303.4331 -9185.6565 -7433.5869 300.1950 754.5587 856.9955 29792.8623 2.4808 2.4872
ENERGY: 1300000 0.0000 0.0000 0.0000 0.0000 -10644.0884 1392.7265 0.0000 0.0000 1717.1148 -7534.2470 297.8599 -9251.3618 -7532.5426 299.8273 -240.7904 -191.1502 30054.1837 3.0267 3.1258
ENERGY: 1500000 0.0000 0.0000 0.0000 0.0000 -10637.2669 1409.4624 0.0000 0.0000 1796.2242 -7431.5803 311.5826 -9227.8045 -7428.2492 300.4905 -198.5211 -87.4050 30263.3785 3.2539 3.2200
ENERGY: 1700000 0.0000 0.0000 0.0000 0.0000 -10645.5960 1400.9766 0.0000 0.0000 1680.4840 -7564.1354 291.5057 -9244.6194 -7561.1289 299.8746 -181.8834 -126.7208 29979.2437 1.8955 1.9630
ENERGY: 1900000 0.0000 0.0000 0.0000 0.0000 -10552.7814 1351.3586 0.0000 0.0000 1673.6340 -7527.7888 290.3174 -9201.4227 -7522.8669 300.8357 -639.0148 -505.3169 30122.3523 3.1437 3.1888
TCL: Exiting due to exit command.
