Info: SIMULATION PARAMETERS:
Info: TIMESTEP               2
Info: NUMBER OF STEPS        0
Info: STEPS PER CYCLE        10
Info: PERIODIC CELL BASIS 1  36.281 0 0
Info: PERIODIC CELL BASIS 2  0 36.762 0
Info: PERIODIC CELL BASIS 3  0 0 34.229
Info: PERIODIC CELL CENTER   0 0 0
Info: WRAPPING WATERS AROUND PERIODIC BOUNDARIES ON OUTPUT.
Info: WRAPPING ALL CLUSTERS AROUND PERIODIC BOUNDARIES ON OUTPUT.
Info: FIRST LDB TIMESTEP     50
Info: LAST LDB TIMESTEP     -1
Info: HOM BACKGROUND SCALING 1
Info: PME BACKGROUND SCALING 1
Info: MIN ATOMS PER PATCH    40
Info: EMPTY PATCH LOAD       40 ATOMS
Info: INITIAL TEMPERATURE    300
Info: CENTER OF MASS MOVING INITIALLY? NO
Info: DIELECTRIC             1
Info: EXCLUDE                SCALED ONE-FOUR
Info: 1-4 ELECTROSTATICS SCALED BY 0.833333
Info: MODIFIED 1-4 VDW PARAMETERS WILL BE USED
Info: DCD FILENAME           mobley_7735340_equil.dcd
Info: DCD FREQUENCY          100000
Info: DCD FIRST STEP         100000
Info: DCD FILE WILL CONTAIN UNIT CELL DATA
Info: XST FILENAME           mobley_7735340_equil.xst
Info: XST FREQUENCY          100000
Info: NO VELOCITY DCD OUTPUT
Info: NO FORCE DCD OUTPUT
Info: OUTPUT FILENAME        mobley_7735340_equil
Info: BINARY OUTPUT FILES WILL BE USED
Info: RESTART FILENAME       mobley_7735340_equil.restart
Info: RESTART FREQUENCY      100000
Info: BINARY RESTART FILES WILL BE USED
Info: CUTOFF                 9
Info: PAIRLIST DISTANCE      11
Info: PAIRLIST SHRINK RATE   0.01
Info: PAIRLIST GROW RATE     0.01
Info: PAIRLIST TRIGGER       0.3
Info: PAIRLISTS PER CYCLE    2
Info: PAIRLISTS ENABLED
Info: MARGIN                 8
Info: HYDROGEN GROUP CUTOFF  2.5
Info: PATCH DIMENSION        21.5
Info: ENERGY OUTPUT STEPS    100000
Info: ENERGY EVALUATION STEPS    100000
Info: OUTPUT ENERGY PRECISION 4
Info: CROSSTERM ENERGY INCLUDED IN DIHEDRAL
Info: TIMING OUTPUT STEPS    1000000
Info: PRESSURE OUTPUT STEPS  100000
Info: FIXED ATOMS ACTIVE
Info: LANGEVIN DYNAMICS ACTIVE
Info: LANGEVIN TEMPERATURE   30
Info: LANGEVIN USING BBK INTEGRATOR
Info: LANGEVIN DAMPING COEFFICIENT IS 1 INVERSE PS
Info: LANGEVIN DYNAMICS APPLIED TO HYDROGENS
Info: LANGEVIN PISTON PRESSURE CONTROL ACTIVE
Info:        TARGET PRESSURE IS 1.01325 BAR
Info:     OSCILLATION PERIOD IS 50 FS
Info:             DECAY TIME IS 25 FS
Info:     PISTON TEMPERATURE IS 300 K
Info:       PRESSURE CONTROL IS GROUP-BASED
Info:    INITIAL STRAIN RATE IS 0 0 0
Info:       CELL FLUCTUATION IS ISOTROPIC
Info: PARTICLE MESH EWALD (PME) ACTIVE
Info: PME TOLERANCE               1e-06
Info: PME EWALD COEFFICIENT       0.348832
Info: PME INTERPOLATION ORDER     4
Info: PME GRID DIMENSIONS         40 40 36
Info: PME MAXIMUM GRID SPACING    1
Info: FULL ELECTROSTATIC EVALUATION FREQUENCY      2
Info: USING VERLET I (r-RESPA) MTS SCHEME.
Info: C1 SPLITTING OF LONG RANGE ELECTROSTATICS
Info: PLACING ATOMS IN PATCHES BY HYDROGEN GROUPS
Info: RIGID BONDS TO HYDROGEN : ALL
Info:         ERROR TOLERANCE : 1e-08
Info:          MAX ITERATIONS : 100
Info: RIGID WATER USING SETTLE ALGORITHM
Info: RANDOM NUMBER SEED     1743683459
Info: USE HYDROGEN BONDS?    NO
Info: Using AMBER format force field!
Info: AMBER PARM FILE        mobley_7735340.prmtop
Info: COORDINATE PDB         mobley_7735340.pdb
Info: Exclusions will be read from PARM file!
Info: SCNB (VDW SCALING)     2
Info: USING ARITHMETIC MEAN TO COMBINE L-J SIGMA PARAMETERS
Info: BINARY COORDINATES     mobley_7735340_min.coor
Info: SUMMARY OF PARAMETERS:
Info: 10 BONDS
Info: 12 ANGLES
Info:   12 HARMONIC
Info:   0 COSINE-BASED
Info: 4 DIHEDRAL
Info: 0 IMPROPER
Info: 0 CROSSTERM
Info: 0 VDW
Info: 28 VDW_PAIRS
Info: 0 NBTHOLE_PAIRS
Info: STRUCTURE SUMMARY:
Info: 2976 ATOMS
Info: 2976 BONDS
Info: 13 ANGLES
Info: 20 DIHEDRALS
Info: 0 IMPROPERS
Info: 0 CROSSTERMS
Info: 3000 EXCLUSIONS
Info: 9 FIXED ATOMS
Info: 2971 RIGID BONDS
Info: 4 RIGID BONDS BETWEEN FIXED ATOMS
Info: 5934 DEGREES OF FREEDOM
Info: 994 HYDROGEN GROUPS
Info: 3 ATOMS IN LARGEST HYDROGEN GROUP
Info: 994 MIGRATION GROUPS
Info: 3 ATOMS IN LARGEST MIGRATION GROUP
Info: 5 HYDROGEN GROUPS WITH ALL ATOMS FIXED
Info: TOTAL MASS = 17885.9 amu
Info: TOTAL CHARGE = -9.99831e-05 e
Info: MASS DENSITY = 0.650575 g/cm^3
Info: ATOM DENSITY = 0.0651869 atoms/A^3
Info: ADDED 0 IMPLICIT EXCLUSIONS
Info: NONBONDED TABLE R-SQUARED SPACING: 0.0625
Info: NONBONDED TABLE SIZE: 705 POINTS
Info: REMOVING COM VELOCITY 0.0161572 -0.160286 0.0239421
TCL: Running for 100000 steps
ETITLE: TS BOND ANGLE DIHED IMPRP ELECT VDW BOUNDARY MISC KINETIC TOTAL TEMP POTENTIAL TOTAL3 TEMPAVG PRESSURE GPRESSURE VOLUME PRESSAVG GPRESSAVG
ENERGY: 0 0.0000 0.0000 0.0000 0.0000 -13843.3185 2409.3952 0.0000 0.0000 1753.7749 -9680.1485 297.4519 -11433.9234 -9679.8057 297.4519 404.6098 436.1122 45653.3437 404.6098 436.1122
ENERGY: 100000 0.0000 0.0000 0.0000 0.0000 -14391.4385 2467.9158 0.0000 0.0000 180.2799 -11743.2428 30.5767 -11923.5227 -11742.8980 30.8548 -84.6682 -25.3606 28746.7671 4.4690 4.4784
TCL: Running 100000 steps at 60 kelvin.
TCL: Setting parameter langevinTemp to 60
TCL: Running for 100000 steps
ETITLE: TS BOND ANGLE DIHED IMPRP ELECT VDW BOUNDARY MISC KINETIC TOTAL TEMP POTENTIAL TOTAL3 TEMPAVG PRESSURE GPRESSURE VOLUME PRESSAVG GPRESSAVG
ENERGY: 100000 0.0000 0.0000 0.0000 0.0000 -14391.4385 2467.9158 0.0000 0.0000 180.1911 -11743.3316 30.5616 -11923.5227 -11742.9711 30.5616 -84.9032 -25.7219 28746.7671 -84.9032 -25.7219
ENERGY: 200000 0.0000 0.0000 0.0000 0.0000 -14258.2685 2417.9371 0.0000 0.0000 346.6197 -11493.7117 58.7890 -11840.3314 -11492.9658 59.9562 -302.0437 -235.0943 28981.6528 4.0867 4.1387
TCL: Running 100000 steps at 90 kelvin.
TCL: Setting parameter langevinTemp to 90
TCL: Running for 100000 steps
ETITLE: TS BOND ANGLE DIHED IMPRP ELECT VDW BOUNDARY MISC KINETIC TOTAL TEMP POTENTIAL TOTAL3 TEMPAVG PRESSURE GPRESSURE VOLUME PRESSAVG GPRESSAVG
ENERGY: 200000 0.0000 0.0000 0.0000 0.0000 -14258.2685 2417.9371 0.0000 0.0000 346.4441 -11493.8874 58.7592 -11840.3314 -11493.0255 58.7592 -287.5995 -235.5463 28981.6528 -287.5995 -235.5463
ENERGY: 300000 0.0000 0.0000 0.0000 0.0000 -14184.2106 2420.8797 0.0000 0.0000 530.8684 -11232.4626 90.0388 -11763.3309 -11231.0759 89.9682 94.2243 191.5459 28831.3469 4.1894 4.1655
TCL: Running 100000 steps at 120 kelvin.
TCL: Setting parameter langevinTemp to 120
TCL: Running for 100000 steps
ETITLE: TS BOND ANGLE DIHED IMPRP ELECT VDW BOUNDARY MISC KINETIC TOTAL TEMP POTENTIAL TOTAL3 TEMPAVG PRESSURE GPRESSURE VOLUME PRESSAVG GPRESSAVG
ENERGY: 300000 0.0000 0.0000 0.0000 0.0000 -14184.2106 2420.8797 0.0000 0.0000 530.5986 -11232.7323 89.9930 -11763.3309 -11231.6766 89.9930 117.0760 191.4058 28831.3469 117.0760 191.4058
ENERGY: 400000 0.0000 0.0000 0.0000 0.0000 -13978.8491 2378.3528 0.0000 0.0000 718.8377 -10881.6586 121.9196 -11600.4963 -10879.8344 119.8509 167.0654 217.8342 29184.4323 3.8892 3.8392
TCL: Running 100000 steps at 150 kelvin.
TCL: Setting parameter langevinTemp to 150
TCL: Running for 100000 steps
ETITLE: TS BOND ANGLE DIHED IMPRP ELECT VDW BOUNDARY MISC KINETIC TOTAL TEMP POTENTIAL TOTAL3 TEMPAVG PRESSURE GPRESSURE VOLUME PRESSAVG GPRESSAVG
ENERGY: 400000 0.0000 0.0000 0.0000 0.0000 -13978.8491 2378.3528 0.0000 0.0000 718.4784 -10882.0179 121.8587 -11600.4963 -10880.5697 121.8587 163.3893 218.0003 29184.4323 163.3893 218.0003
ENERGY: 500000 0.0000 0.0000 0.0000 0.0000 -13715.8604 2254.8284 0.0000 0.0000 890.0222 -10571.0098 150.9537 -11461.0320 -10568.0938 149.7268 -194.3016 -101.0527 29005.1246 4.2809 4.2614
TCL: Running 100000 steps at 180 kelvin.
TCL: Setting parameter langevinTemp to 180
TCL: Running for 100000 steps
ETITLE: TS BOND ANGLE DIHED IMPRP ELECT VDW BOUNDARY MISC KINETIC TOTAL TEMP POTENTIAL TOTAL3 TEMPAVG PRESSURE GPRESSURE VOLUME PRESSAVG GPRESSAVG
ENERGY: 500000 0.0000 0.0000 0.0000 0.0000 -13715.8604 2254.8284 0.0000 0.0000 889.5877 -10571.4443 150.8800 -11461.0320 -10569.8106 150.8800 -159.1419 -100.6741 29005.1246 -159.1419 -100.6741
ENERGY: 600000 0.0000 0.0000 0.0000 0.0000 -13279.2056 2149.0645 0.0000 0.0000 1060.4484 -10069.6927 179.8591 -11130.1411 -10067.3791 179.4947 231.5671 292.3811 28918.6984 4.7824 4.8027
TCL: Running 100000 steps at 210 kelvin.
TCL: Setting parameter langevinTemp to 210
TCL: Running for 100000 steps
ETITLE: TS BOND ANGLE DIHED IMPRP ELECT VDW BOUNDARY MISC KINETIC TOTAL TEMP POTENTIAL TOTAL3 TEMPAVG PRESSURE GPRESSURE VOLUME PRESSAVG GPRESSAVG
ENERGY: 600000 0.0000 0.0000 0.0000 0.0000 -13279.2056 2149.0645 0.0000 0.0000 1059.9420 -10070.1991 179.7732 -11130.1411 -10068.5655 179.7732 217.5590 291.9832 28918.6984 217.5590 291.9832
ENERGY: 700000 0.0000 0.0000 0.0000 0.0000 -12649.7765 1957.5649 0.0000 0.0000 1251.9143 -9440.2973 212.3330 -10692.2116 -9437.3727 209.5826 197.0858 288.0125 29174.2348 2.0069 2.0781
TCL: Running 100000 steps at 240 kelvin.
TCL: Setting parameter langevinTemp to 240
TCL: Running for 100000 steps
ETITLE: TS BOND ANGLE DIHED IMPRP ELECT VDW BOUNDARY MISC KINETIC TOTAL TEMP POTENTIAL TOTAL3 TEMPAVG PRESSURE GPRESSURE VOLUME PRESSAVG GPRESSAVG
ENERGY: 700000 0.0000 0.0000 0.0000 0.0000 -12649.7765 1957.5649 0.0000 0.0000 1251.2926 -9440.9190 212.2275 -10692.2116 -9438.9942 212.2275 218.8031 288.7742 29174.2348 218.8031 288.7742
ENERGY: 800000 0.0000 0.0000 0.0000 0.0000 -12034.3159 1831.1259 0.0000 0.0000 1430.6834 -8772.5066 242.6534 -10203.1900 -8771.6555 239.7280 854.0215 911.1032 29351.3943 3.1861 3.2682
TCL: Running 100000 steps at 270 kelvin.
TCL: Setting parameter langevinTemp to 270
TCL: Running for 100000 steps
ETITLE: TS BOND ANGLE DIHED IMPRP ELECT VDW BOUNDARY MISC KINETIC TOTAL TEMP POTENTIAL TOTAL3 TEMPAVG PRESSURE GPRESSURE VOLUME PRESSAVG GPRESSAVG
ENERGY: 800000 0.0000 0.0000 0.0000 0.0000 -12034.3159 1831.1259 0.0000 0.0000 1429.9685 -8773.2215 242.5321 -10203.1900 -8771.8006 242.5321 836.0583 909.6522 29351.3943 836.0583 909.6522
ENERGY: 900000 0.0000 0.0000 0.0000 0.0000 -11443.5900 1617.4785 0.0000 0.0000 1543.9171 -8282.1943 261.8586 -9826.1114 -8278.8809 269.9161 250.3694 281.5192 29812.9752 3.3624 3.2567
TCL: Running 1000000 steps at 300 kelvin.
TCL: Setting parameter langevinTemp to 300
TCL: Running for 1000000 steps
ETITLE: TS BOND ANGLE DIHED IMPRP ELECT VDW BOUNDARY MISC KINETIC TOTAL TEMP POTENTIAL TOTAL3 TEMPAVG PRESSURE GPRESSURE VOLUME PRESSAVG GPRESSAVG
ENERGY: 900000 0.0000 0.0000 0.0000 0.0000 -11443.5900 1617.4785 0.0000 0.0000 1543.0819 -8283.0295 261.7169 -9826.1114 -8280.6094 261.7169 190.9799 281.8658 29812.9752 190.9799 281.8658
ENERGY: 1100000 0.0000 0.0000 0.0000 0.0000 -10941.3901 1447.4690 0.0000 0.0000 1777.0059 -7716.9151 301.3920 -9493.9210 -7713.0898 300.7753 -118.5236 -41.3687 30441.2860 4.0745 4.0868
ENERGY: 1300000 0.0000 0.0000 0.0000 0.0000 -10807.2354 1441.4009 0.0000 0.0000 1785.1584 -7580.6761 302.7747 -9365.8345 -7580.0762 299.9135 22.8127 103.0342 30822.1628 2.7866 2.7633
ENERGY: 1500000 0.0000 0.0000 0.0000 0.0000 -10952.6105 1471.8657 0.0000 0.0000 1732.4976 -7748.2472 293.8431 -9480.7448 -7746.1389 300.4022 -195.9898 -53.4923 30792.0108 3.6551 3.5143
ENERGY: 1700000 0.0000 0.0000 0.0000 0.0000 -10925.1632 1524.6954 0.0000 0.0000 1736.3188 -7664.1490 294.4912 -9400.4678 -7660.5775 300.0638 662.8501 735.1479 30415.2754 4.3192 4.3092
ENERGY: 1900000 0.0000 0.0000 0.0000 0.0000 -10964.7716 1515.1070 0.0000 0.0000 1749.5316 -7700.1330 296.7322 -9449.6645 -7695.6186 300.1415 213.9925 325.0379 30764.5415 3.9035 3.8491
TCL: Exiting due to exit command.
