Info: SIMULATION PARAMETERS:
Info: TIMESTEP               2
Info: NUMBER OF STEPS        0
Info: STEPS PER CYCLE        10
Info: PERIODIC CELL BASIS 1  37.38 0 0
Info: PERIODIC CELL BASIS 2  0 34.696 0
Info: PERIODIC CELL BASIS 3  0 0 33.27
Info: PERIODIC CELL CENTER   0 0 0
Info: WRAPPING WATERS AROUND PERIODIC BOUNDARIES ON OUTPUT.
Info: WRAPPING ALL CLUSTERS AROUND PERIODIC BOUNDARIES ON OUTPUT.
Info: FIRST LDB TIMESTEP     50
Info: LAST LDB TIMESTEP     -1
Info: HOM BACKGROUND SCALING 1
Info: PME BACKGROUND SCALING 1
Info: MIN ATOMS PER PATCH    40
Info: EMPTY PATCH LOAD       40 ATOMS
Info: INITIAL TEMPERATURE    300
Info: CENTER OF MASS MOVING INITIALLY? NO
Info: DIELECTRIC             1
Info: EXCLUDE                SCALED ONE-FOUR
Info: 1-4 ELECTROSTATICS SCALED BY 0.833333
Info: MODIFIED 1-4 VDW PARAMETERS WILL BE USED
Info: DCD FILENAME           mobley_4059279_equil.dcd
Info: DCD FREQUENCY          100000
Info: DCD FIRST STEP         100000
Info: DCD FILE WILL CONTAIN UNIT CELL DATA
Info: XST FILENAME           mobley_4059279_equil.xst
Info: XST FREQUENCY          100000
Info: NO VELOCITY DCD OUTPUT
Info: NO FORCE DCD OUTPUT
Info: OUTPUT FILENAME        mobley_4059279_equil
Info: BINARY OUTPUT FILES WILL BE USED
Info: RESTART FILENAME       mobley_4059279_equil.restart
Info: RESTART FREQUENCY      100000
Info: BINARY RESTART FILES WILL BE USED
Info: CUTOFF                 9
Info: PAIRLIST DISTANCE      11
Info: PAIRLIST SHRINK RATE   0.01
Info: PAIRLIST GROW RATE     0.01
Info: PAIRLIST TRIGGER       0.3
Info: PAIRLISTS PER CYCLE    2
Info: PAIRLISTS ENABLED
Info: MARGIN                 8
Info: HYDROGEN GROUP CUTOFF  2.5
Info: PATCH DIMENSION        21.5
Info: ENERGY OUTPUT STEPS    100000
Info: ENERGY EVALUATION STEPS    100000
Info: OUTPUT ENERGY PRECISION 4
Info: CROSSTERM ENERGY INCLUDED IN DIHEDRAL
Info: TIMING OUTPUT STEPS    1000000
Info: PRESSURE OUTPUT STEPS  100000
Info: FIXED ATOMS ACTIVE
Info: LANGEVIN DYNAMICS ACTIVE
Info: LANGEVIN TEMPERATURE   30
Info: LANGEVIN USING BBK INTEGRATOR
Info: LANGEVIN DAMPING COEFFICIENT IS 1 INVERSE PS
Info: LANGEVIN DYNAMICS APPLIED TO HYDROGENS
Info: LANGEVIN PISTON PRESSURE CONTROL ACTIVE
Info:        TARGET PRESSURE IS 1.01325 BAR
Info:     OSCILLATION PERIOD IS 50 FS
Info:             DECAY TIME IS 25 FS
Info:     PISTON TEMPERATURE IS 300 K
Info:       PRESSURE CONTROL IS GROUP-BASED
Info:    INITIAL STRAIN RATE IS 0 0 0
Info:       CELL FLUCTUATION IS ISOTROPIC
Info: PARTICLE MESH EWALD (PME) ACTIVE
Info: PME TOLERANCE               1e-06
Info: PME EWALD COEFFICIENT       0.348832
Info: PME INTERPOLATION ORDER     4
Info: PME GRID DIMENSIONS         40 36 36
Info: PME MAXIMUM GRID SPACING    1
Info: FULL ELECTROSTATIC EVALUATION FREQUENCY      2
Info: USING VERLET I (r-RESPA) MTS SCHEME.
Info: C1 SPLITTING OF LONG RANGE ELECTROSTATICS
Info: PLACING ATOMS IN PATCHES BY HYDROGEN GROUPS
Info: RIGID BONDS TO HYDROGEN : ALL
Info:         ERROR TOLERANCE : 1e-08
Info:          MAX ITERATIONS : 100
Info: RIGID WATER USING SETTLE ALGORITHM
Info: RANDOM NUMBER SEED     1743764262
Info: USE HYDROGEN BONDS?    NO
Info: Using AMBER format force field!
Info: AMBER PARM FILE        mobley_4059279.prmtop
Info: COORDINATE PDB         mobley_4059279.pdb
Info: Exclusions will be read from PARM file!
Info: SCNB (VDW SCALING)     2
Info: USING ARITHMETIC MEAN TO COMBINE L-J SIGMA PARAMETERS
Info: BINARY COORDINATES     mobley_4059279_min.coor
Info: SUMMARY OF PARAMETERS:
Info: 5 BONDS
Info: 5 ANGLES
Info:   5 HARMONIC
Info:   0 COSINE-BASED
Info: 3 DIHEDRAL
Info: 0 IMPROPER
Info: 0 CROSSTERM
Info: 0 VDW
Info: 15 VDW_PAIRS
Info: 0 NBTHOLE_PAIRS
Info: STRUCTURE SUMMARY:
Info: 2902 ATOMS
Info: 2902 BONDS
Info: 42 ANGLES
Info: 62 DIHEDRALS
Info: 0 IMPROPERS
Info: 0 CROSSTERMS
Info: 2995 EXCLUSIONS
Info: 22 FIXED ATOMS
Info: 2894 RIGID BONDS
Info: 14 RIGID BONDS BETWEEN FIXED ATOMS
Info: 5760 DEGREES OF FREEDOM
Info: 968 HYDROGEN GROUPS
Info: 4 ATOMS IN LARGEST HYDROGEN GROUP
Info: 968 MIGRATION GROUPS
Info: 4 ATOMS IN LARGEST MIGRATION GROUP
Info: 8 HYDROGEN GROUPS WITH ALL ATOMS FIXED
Info: TOTAL MASS = 17409.6 amu
Info: TOTAL CHARGE = 0.000399984 e
Info: MASS DENSITY = 0.670001 g/cm^3
Info: ATOM DENSITY = 0.0672552 atoms/A^3
Info: ADDED 0 IMPLICIT EXCLUSIONS
Info: NONBONDED TABLE R-SQUARED SPACING: 0.0625
Info: NONBONDED TABLE SIZE: 705 POINTS
Info: REMOVING COM VELOCITY 0.0120382 -0.065362 0.0864379
TCL: Running for 100000 steps
ETITLE: TS BOND ANGLE DIHED IMPRP ELECT VDW BOUNDARY MISC KINETIC TOTAL TEMP POTENTIAL TOTAL3 TEMPAVG PRESSURE GPRESSURE VOLUME PRESSAVG GPRESSAVG
ENERGY: 0 0.0000 0.0000 0.0000 0.0000 -13385.7525 2324.9047 0.0000 0.0000 1776.1170 -9284.7307 310.3412 -11060.8477 -9284.3591 310.3412 281.1199 311.4482 43149.0767 281.1199 311.4482
ENERGY: 100000 0.0000 0.0000 0.0000 0.0000 -13923.7868 2300.1716 0.0000 0.0000 167.6757 -11455.9395 29.2980 -11623.6152 -11455.4559 30.9729 -1121.5111 -1072.6025 28450.7847 3.7466 3.7173
TCL: Running 100000 steps at 60 kelvin.
TCL: Setting parameter langevinTemp to 60
TCL: Running for 100000 steps
ETITLE: TS BOND ANGLE DIHED IMPRP ELECT VDW BOUNDARY MISC KINETIC TOTAL TEMP POTENTIAL TOTAL3 TEMPAVG PRESSURE GPRESSURE VOLUME PRESSAVG GPRESSAVG
ENERGY: 100000 0.0000 0.0000 0.0000 0.0000 -13923.7868 2300.1716 0.0000 0.0000 167.5893 -11456.0259 29.2829 -11623.6152 -11455.7181 29.2829 -1123.4444 -1072.6110 28450.7847 -1123.4444 -1072.6110
ENERGY: 200000 0.0000 0.0000 0.0000 0.0000 -13944.3052 2425.6441 0.0000 0.0000 350.1260 -11168.5351 61.1776 -11518.6611 -11167.6692 59.9809 380.6331 406.4181 28473.5328 4.0935 4.0485
TCL: Running 100000 steps at 90 kelvin.
TCL: Setting parameter langevinTemp to 90
TCL: Running for 100000 steps
ETITLE: TS BOND ANGLE DIHED IMPRP ELECT VDW BOUNDARY MISC KINETIC TOTAL TEMP POTENTIAL TOTAL3 TEMPAVG PRESSURE GPRESSURE VOLUME PRESSAVG GPRESSAVG
ENERGY: 200000 0.0000 0.0000 0.0000 0.0000 -13944.3052 2425.6441 0.0000 0.0000 349.9621 -11168.6989 61.1489 -11518.6611 -11167.9325 61.1489 367.6983 406.2883 28473.5328 367.6983 406.2883
ENERGY: 300000 0.0000 0.0000 0.0000 0.0000 -13736.1025 2321.8197 0.0000 0.0000 513.7554 -10900.5274 89.7686 -11414.2828 -10899.3511 90.0218 -43.4813 16.5228 28408.8634 3.8112 3.9475
TCL: Running 100000 steps at 120 kelvin.
TCL: Setting parameter langevinTemp to 120
TCL: Running for 100000 steps
ETITLE: TS BOND ANGLE DIHED IMPRP ELECT VDW BOUNDARY MISC KINETIC TOTAL TEMP POTENTIAL TOTAL3 TEMPAVG PRESSURE GPRESSURE VOLUME PRESSAVG GPRESSAVG
ENERGY: 300000 0.0000 0.0000 0.0000 0.0000 -13736.1025 2321.8197 0.0000 0.0000 513.4937 -10900.7891 89.7228 -11414.2828 -10899.7908 89.7228 -30.0934 16.0281 28408.8634 -30.0934 16.0281
ENERGY: 400000 0.0000 0.0000 0.0000 0.0000 -13440.1354 2136.9727 0.0000 0.0000 693.4701 -10609.6927 121.1702 -11303.1628 -10607.5861 119.8894 -1186.4279 -1147.6907 28622.9731 5.2047 5.2671
TCL: Running 100000 steps at 150 kelvin.
TCL: Setting parameter langevinTemp to 150
TCL: Running for 100000 steps
ETITLE: TS BOND ANGLE DIHED IMPRP ELECT VDW BOUNDARY MISC KINETIC TOTAL TEMP POTENTIAL TOTAL3 TEMPAVG PRESSURE GPRESSURE VOLUME PRESSAVG GPRESSAVG
ENERGY: 400000 0.0000 0.0000 0.0000 0.0000 -13440.1354 2136.9727 0.0000 0.0000 693.1203 -10610.0424 121.1090 -11303.1628 -10608.0950 121.1090 -1206.4985 -1147.5746 28622.9731 -1206.4985 -1147.5746
ENERGY: 500000 0.0000 0.0000 0.0000 0.0000 -13251.6436 2116.1488 0.0000 0.0000 852.0286 -10283.4662 148.8751 -11135.4948 -10281.8775 149.9300 -871.1733 -785.3150 28521.2730 3.4157 3.5635
TCL: Running 100000 steps at 180 kelvin.
TCL: Setting parameter langevinTemp to 180
TCL: Running for 100000 steps
ETITLE: TS BOND ANGLE DIHED IMPRP ELECT VDW BOUNDARY MISC KINETIC TOTAL TEMP POTENTIAL TOTAL3 TEMPAVG PRESSURE GPRESSURE VOLUME PRESSAVG GPRESSAVG
ENERGY: 500000 0.0000 0.0000 0.0000 0.0000 -13251.6436 2116.1488 0.0000 0.0000 851.6039 -10283.8909 148.8009 -11135.4948 -10281.9765 148.8009 -834.0887 -785.5966 28521.2730 -834.0887 -785.5966
ENERGY: 600000 0.0000 0.0000 0.0000 0.0000 -12862.5510 2003.9999 0.0000 0.0000 1033.3768 -9825.1743 180.5621 -10858.5511 -9822.6046 179.9287 -561.4195 -475.7550 28318.4370 4.8410 4.7731
TCL: Running 100000 steps at 210 kelvin.
TCL: Setting parameter langevinTemp to 210
TCL: Running for 100000 steps
ETITLE: TS BOND ANGLE DIHED IMPRP ELECT VDW BOUNDARY MISC KINETIC TOTAL TEMP POTENTIAL TOTAL3 TEMPAVG PRESSURE GPRESSURE VOLUME PRESSAVG GPRESSAVG
ENERGY: 600000 0.0000 0.0000 0.0000 0.0000 -12862.5510 2003.9999 0.0000 0.0000 1032.8706 -9825.6804 180.4737 -10858.5511 -9824.4794 180.4737 -546.4636 -474.4890 28318.4370 -546.4636 -474.4890
ENERGY: 700000 0.0000 0.0000 0.0000 0.0000 -12179.6871 1794.5121 0.0000 0.0000 1181.4877 -9203.6873 206.4415 -10385.1750 -9200.0380 210.1842 -651.7664 -556.8402 28503.3425 4.7801 4.6338
TCL: Running 100000 steps at 240 kelvin.
TCL: Setting parameter langevinTemp to 240
TCL: Running for 100000 steps
ETITLE: TS BOND ANGLE DIHED IMPRP ELECT VDW BOUNDARY MISC KINETIC TOTAL TEMP POTENTIAL TOTAL3 TEMPAVG PRESSURE GPRESSURE VOLUME PRESSAVG GPRESSAVG
ENERGY: 700000 0.0000 0.0000 0.0000 0.0000 -12179.6871 1794.5121 0.0000 0.0000 1180.8660 -9204.3090 206.3329 -10385.1750 -9202.1026 206.3329 -629.8546 -556.8961 28503.3425 -629.8546 -556.8961
ENERGY: 800000 0.0000 0.0000 0.0000 0.0000 -11722.7242 1686.6791 0.0000 0.0000 1389.4062 -8646.6389 242.7712 -10036.0451 -8644.8586 239.8272 -149.3710 -21.5424 28285.5109 3.8403 3.9036
TCL: Running 100000 steps at 270 kelvin.
TCL: Setting parameter langevinTemp to 270
TCL: Running for 100000 steps
ETITLE: TS BOND ANGLE DIHED IMPRP ELECT VDW BOUNDARY MISC KINETIC TOTAL TEMP POTENTIAL TOTAL3 TEMPAVG PRESSURE GPRESSURE VOLUME PRESSAVG GPRESSAVG
ENERGY: 800000 0.0000 0.0000 0.0000 0.0000 -11722.7242 1686.6791 0.0000 0.0000 1388.7089 -8647.3362 242.6493 -10036.0451 -8644.6208 242.6493 -114.5227 -21.9803 28285.5109 -114.5227 -21.9803
ENERGY: 900000 0.0000 0.0000 0.0000 0.0000 -11174.0482 1574.4724 0.0000 0.0000 1546.6070 -8052.9688 270.2389 -9599.5758 -8048.4681 270.1706 335.1669 498.0739 28652.9510 3.2925 3.1154
TCL: Running 1000000 steps at 300 kelvin.
TCL: Setting parameter langevinTemp to 300
TCL: Running for 1000000 steps
ETITLE: TS BOND ANGLE DIHED IMPRP ELECT VDW BOUNDARY MISC KINETIC TOTAL TEMP POTENTIAL TOTAL3 TEMPAVG PRESSURE GPRESSURE VOLUME PRESSAVG GPRESSAVG
ENERGY: 900000 0.0000 0.0000 0.0000 0.0000 -11174.0482 1574.4724 0.0000 0.0000 1545.8163 -8053.7595 270.1007 -9599.5758 -8050.8512 270.1007 407.5674 499.6025 28652.9510 407.5674 499.6025
ENERGY: 1100000 0.0000 0.0000 0.0000 0.0000 -10638.7491 1431.1952 0.0000 0.0000 1723.4778 -7484.0760 301.1436 -9207.5538 -7481.9422 300.2467 169.7068 321.0344 29514.5760 2.0764 2.0491
ENERGY: 1300000 0.0000 0.0000 0.0000 0.0000 -10639.7274 1410.7584 0.0000 0.0000 1677.8783 -7551.0908 293.1760 -9228.9691 -7550.5318 300.7186 -40.4581 26.6810 29501.0938 1.5618 1.4314
ENERGY: 1500000 0.0000 0.0000 0.0000 0.0000 -10624.8328 1442.3317 0.0000 0.0000 1702.4286 -7480.0725 297.4656 -9182.5012 -7478.2019 301.0806 286.7103 394.3398 29513.4500 2.7462 2.7358
ENERGY: 1700000 0.0000 0.0000 0.0000 0.0000 -10728.8774 1478.5725 0.0000 0.0000 1733.1138 -7517.1911 302.8273 -9250.3049 -7513.7434 300.0557 299.0941 395.0119 29779.0071 3.1669 2.9752
ENERGY: 1900000 0.0000 0.0000 0.0000 0.0000 -10604.3376 1433.4097 0.0000 0.0000 1749.8791 -7421.0489 305.7567 -9170.9279 -7419.5564 299.9867 144.2724 254.4044 30029.6941 3.5488 3.6069
TCL: Exiting due to exit command.
