Info: SIMULATION PARAMETERS:
Info: TIMESTEP               2
Info: NUMBER OF STEPS        0
Info: STEPS PER CYCLE        10
Info: PERIODIC CELL BASIS 1  39.008 0 0
Info: PERIODIC CELL BASIS 2  0 35.267 0
Info: PERIODIC CELL BASIS 3  0 0 31.349
Info: PERIODIC CELL CENTER   0 0 0
Info: WRAPPING WATERS AROUND PERIODIC BOUNDARIES ON OUTPUT.
Info: WRAPPING ALL CLUSTERS AROUND PERIODIC BOUNDARIES ON OUTPUT.
Info: FIRST LDB TIMESTEP     50
Info: LAST LDB TIMESTEP     -1
Info: HOM BACKGROUND SCALING 1
Info: PME BACKGROUND SCALING 1
Info: MIN ATOMS PER PATCH    40
Info: EMPTY PATCH LOAD       40 ATOMS
Info: INITIAL TEMPERATURE    300
Info: CENTER OF MASS MOVING INITIALLY? NO
Info: DIELECTRIC             1
Info: EXCLUDE                SCALED ONE-FOUR
Info: 1-4 ELECTROSTATICS SCALED BY 0.833333
Info: MODIFIED 1-4 VDW PARAMETERS WILL BE USED
Info: DCD FILENAME           mobley_9565165_equil.dcd
Info: DCD FREQUENCY          100000
Info: DCD FIRST STEP         100000
Info: DCD FILE WILL CONTAIN UNIT CELL DATA
Info: XST FILENAME           mobley_9565165_equil.xst
Info: XST FREQUENCY          100000
Info: NO VELOCITY DCD OUTPUT
Info: NO FORCE DCD OUTPUT
Info: OUTPUT FILENAME        mobley_9565165_equil
Info: BINARY OUTPUT FILES WILL BE USED
Info: RESTART FILENAME       mobley_9565165_equil.restart
Info: RESTART FREQUENCY      100000
Info: BINARY RESTART FILES WILL BE USED
Info: CUTOFF                 9
Info: PAIRLIST DISTANCE      11
Info: PAIRLIST SHRINK RATE   0.01
Info: PAIRLIST GROW RATE     0.01
Info: PAIRLIST TRIGGER       0.3
Info: PAIRLISTS PER CYCLE    2
Info: PAIRLISTS ENABLED
Info: MARGIN                 8
Info: HYDROGEN GROUP CUTOFF  2.5
Info: PATCH DIMENSION        21.5
Info: ENERGY OUTPUT STEPS    100000
Info: ENERGY EVALUATION STEPS    100000
Info: OUTPUT ENERGY PRECISION 4
Info: CROSSTERM ENERGY INCLUDED IN DIHEDRAL
Info: TIMING OUTPUT STEPS    1000000
Info: PRESSURE OUTPUT STEPS  100000
Info: FIXED ATOMS ACTIVE
Info: LANGEVIN DYNAMICS ACTIVE
Info: LANGEVIN TEMPERATURE   30
Info: LANGEVIN USING BBK INTEGRATOR
Info: LANGEVIN DAMPING COEFFICIENT IS 1 INVERSE PS
Info: LANGEVIN DYNAMICS APPLIED TO HYDROGENS
Info: LANGEVIN PISTON PRESSURE CONTROL ACTIVE
Info:        TARGET PRESSURE IS 1.01325 BAR
Info:     OSCILLATION PERIOD IS 50 FS
Info:             DECAY TIME IS 25 FS
Info:     PISTON TEMPERATURE IS 300 K
Info:       PRESSURE CONTROL IS GROUP-BASED
Info:    INITIAL STRAIN RATE IS 0 0 0
Info:       CELL FLUCTUATION IS ISOTROPIC
Info: PARTICLE MESH EWALD (PME) ACTIVE
Info: PME TOLERANCE               1e-06
Info: PME EWALD COEFFICIENT       0.348832
Info: PME INTERPOLATION ORDER     4
Info: PME GRID DIMENSIONS         40 36 32
Info: PME MAXIMUM GRID SPACING    1
Info: FULL ELECTROSTATIC EVALUATION FREQUENCY      2
Info: USING VERLET I (r-RESPA) MTS SCHEME.
Info: C1 SPLITTING OF LONG RANGE ELECTROSTATICS
Info: PLACING ATOMS IN PATCHES BY HYDROGEN GROUPS
Info: RIGID BONDS TO HYDROGEN : ALL
Info:         ERROR TOLERANCE : 1e-08
Info:          MAX ITERATIONS : 100
Info: RIGID WATER USING SETTLE ALGORITHM
Info: RANDOM NUMBER SEED     1743764939
Info: USE HYDROGEN BONDS?    NO
Info: Using AMBER format force field!
Info: AMBER PARM FILE        mobley_9565165.prmtop
Info: COORDINATE PDB         mobley_9565165.pdb
Info: Exclusions will be read from PARM file!
Info: SCNB (VDW SCALING)     2
Info: USING ARITHMETIC MEAN TO COMBINE L-J SIGMA PARAMETERS
Info: BINARY COORDINATES     mobley_9565165_min.coor
Info: SUMMARY OF PARAMETERS:
Info: 8 BONDS
Info: 11 ANGLES
Info:   11 HARMONIC
Info:   0 COSINE-BASED
Info: 4 DIHEDRAL
Info: 0 IMPROPER
Info: 0 CROSSTERM
Info: 0 VDW
Info: 21 VDW_PAIRS
Info: 0 NBTHOLE_PAIRS
Info: STRUCTURE SUMMARY:
Info: 2960 ATOMS
Info: 2962 BONDS
Info: 42 ANGLES
Info: 76 DIHEDRALS
Info: 0 IMPROPERS
Info: 0 CROSSTERMS
Info: 3057 EXCLUSIONS
Info: 23 FIXED ATOMS
Info: 2947 RIGID BONDS
Info: 10 RIGID BONDS BETWEEN FIXED ATOMS
Info: 5874 DEGREES OF FREEDOM
Info: 992 HYDROGEN GROUPS
Info: 3 ATOMS IN LARGEST HYDROGEN GROUP
Info: 992 MIGRATION GROUPS
Info: 3 ATOMS IN LARGEST MIGRATION GROUP
Info: 13 HYDROGEN GROUPS WITH ALL ATOMS FIXED
Info: TOTAL MASS = 17803.9 amu
Info: TOTAL CHARGE = 0.000100026 e
Info: MASS DENSITY = 0.685532 g/cm^3
Info: ATOM DENSITY = 0.068635 atoms/A^3
Info: ADDED 0 IMPLICIT EXCLUSIONS
Info: NONBONDED TABLE R-SQUARED SPACING: 0.0625
Info: NONBONDED TABLE SIZE: 705 POINTS
Info: REMOVING COM VELOCITY 0.231027 0.0703566 0.0837286
TCL: Running for 100000 steps
ETITLE: TS BOND ANGLE DIHED IMPRP ELECT VDW BOUNDARY MISC KINETIC TOTAL TEMP POTENTIAL TOTAL3 TEMPAVG PRESSURE GPRESSURE VOLUME PRESSAVG GPRESSAVG
ENERGY: 0 0.0000 0.0000 0.0000 0.0000 -13673.4432 2355.7523 0.0000 0.0000 1742.7755 -9574.9154 298.6056 -11317.6908 -9574.5973 298.6056 247.7373 276.8948 43126.6668 247.7373 276.8948
ENERGY: 100000 0.0000 0.0000 0.0000 0.0000 -14187.9657 2433.3247 0.0000 0.0000 175.3369 -11579.3041 30.0421 -11754.6410 -11578.6670 30.8610 -329.5896 -288.0677 29383.0738 5.3090 5.2663
TCL: Running 100000 steps at 60 kelvin.
TCL: Setting parameter langevinTemp to 60
TCL: Running for 100000 steps
ETITLE: TS BOND ANGLE DIHED IMPRP ELECT VDW BOUNDARY MISC KINETIC TOTAL TEMP POTENTIAL TOTAL3 TEMPAVG PRESSURE GPRESSURE VOLUME PRESSAVG GPRESSAVG
ENERGY: 100000 0.0000 0.0000 0.0000 0.0000 -14187.9657 2433.3247 0.0000 0.0000 175.2458 -11579.3952 30.0265 -11754.6410 -11578.9684 30.0265 -337.5822 -287.8710 29383.0738 -337.5822 -287.8710
ENERGY: 200000 0.0000 0.0000 0.0000 0.0000 -13937.9205 2264.2107 0.0000 0.0000 349.4991 -11324.2107 59.8829 -11673.7098 -11322.6760 59.9678 -1481.5038 -1412.3776 29386.1065 4.9675 4.9771
TCL: Running 100000 steps at 90 kelvin.
TCL: Setting parameter langevinTemp to 90
TCL: Running for 100000 steps
ETITLE: TS BOND ANGLE DIHED IMPRP ELECT VDW BOUNDARY MISC KINETIC TOTAL TEMP POTENTIAL TOTAL3 TEMPAVG PRESSURE GPRESSURE VOLUME PRESSAVG GPRESSAVG
ENERGY: 200000 0.0000 0.0000 0.0000 0.0000 -13937.9205 2264.2107 0.0000 0.0000 349.3278 -11324.3820 59.8535 -11673.7098 -11323.5433 59.8535 -1470.5543 -1411.7868 29386.1065 -1470.5543 -1411.7868
ENERGY: 300000 0.0000 0.0000 0.0000 0.0000 -13971.6348 2408.9344 0.0000 0.0000 513.4108 -11049.2895 87.9673 -11562.7004 -11049.0395 89.9707 175.7238 231.8033 29092.8615 3.8512 3.8768
TCL: Running 100000 steps at 120 kelvin.
TCL: Setting parameter langevinTemp to 120
TCL: Running for 100000 steps
ETITLE: TS BOND ANGLE DIHED IMPRP ELECT VDW BOUNDARY MISC KINETIC TOTAL TEMP POTENTIAL TOTAL3 TEMPAVG PRESSURE GPRESSURE VOLUME PRESSAVG GPRESSAVG
ENERGY: 300000 0.0000 0.0000 0.0000 0.0000 -13971.6348 2408.9344 0.0000 0.0000 513.1484 -11049.5520 87.9224 -11562.7004 -11048.4751 87.9224 178.3579 231.7539 29092.8615 178.3579 231.7539
ENERGY: 400000 0.0000 0.0000 0.0000 0.0000 -13836.3323 2358.8183 0.0000 0.0000 723.7432 -10753.7709 124.0055 -11477.5141 -10751.7100 119.9581 187.6762 264.1066 29001.3469 3.4301 3.3936
TCL: Running 100000 steps at 150 kelvin.
TCL: Setting parameter langevinTemp to 150
TCL: Running for 100000 steps
ETITLE: TS BOND ANGLE DIHED IMPRP ELECT VDW BOUNDARY MISC KINETIC TOTAL TEMP POTENTIAL TOTAL3 TEMPAVG PRESSURE GPRESSURE VOLUME PRESSAVG GPRESSAVG
ENERGY: 400000 0.0000 0.0000 0.0000 0.0000 -13836.3323 2358.8183 0.0000 0.0000 723.4032 -10754.1108 123.9472 -11477.5141 -10752.7605 123.9472 220.8409 264.8450 29001.3469 220.8409 264.8450
ENERGY: 500000 0.0000 0.0000 0.0000 0.0000 -13574.6485 2264.1467 0.0000 0.0000 874.9212 -10435.5806 149.9082 -11310.5018 -10433.1786 149.9928 -12.5449 10.0512 29075.5361 2.9351 2.7423
TCL: Running 100000 steps at 180 kelvin.
TCL: Setting parameter langevinTemp to 180
TCL: Running for 100000 steps
ETITLE: TS BOND ANGLE DIHED IMPRP ELECT VDW BOUNDARY MISC KINETIC TOTAL TEMP POTENTIAL TOTAL3 TEMPAVG PRESSURE GPRESSURE VOLUME PRESSAVG GPRESSAVG
ENERGY: 500000 0.0000 0.0000 0.0000 0.0000 -13574.6485 2264.1467 0.0000 0.0000 874.4856 -10436.0162 149.8336 -11310.5018 -10434.0619 149.8336 -45.2310 9.1954 29075.5361 -45.2310 9.1954
ENERGY: 600000 0.0000 0.0000 0.0000 0.0000 -13195.2802 2172.9159 0.0000 0.0000 1067.7852 -9954.5790 182.9533 -11022.3642 -9952.2204 179.8249 469.3917 467.9853 28921.0886 4.9605 5.0515
TCL: Running 100000 steps at 210 kelvin.
TCL: Setting parameter langevinTemp to 210
TCL: Running for 100000 steps
ETITLE: TS BOND ANGLE DIHED IMPRP ELECT VDW BOUNDARY MISC KINETIC TOTAL TEMP POTENTIAL TOTAL3 TEMPAVG PRESSURE GPRESSURE VOLUME PRESSAVG GPRESSAVG
ENERGY: 600000 0.0000 0.0000 0.0000 0.0000 -13195.2802 2172.9159 0.0000 0.0000 1067.2524 -9955.1119 182.8620 -11022.3642 -9952.9826 182.8620 404.6480 467.7797 28921.0886 404.6480 467.7797
ENERGY: 700000 0.0000 0.0000 0.0000 0.0000 -12331.1345 1759.2569 0.0000 0.0000 1252.4538 -9319.4238 214.5943 -10571.8776 -9316.6602 209.7292 -1102.0486 -1021.3213 29057.2156 3.9833 3.8663
TCL: Running 100000 steps at 240 kelvin.
TCL: Setting parameter langevinTemp to 240
TCL: Running for 100000 steps
ETITLE: TS BOND ANGLE DIHED IMPRP ELECT VDW BOUNDARY MISC KINETIC TOTAL TEMP POTENTIAL TOTAL3 TEMPAVG PRESSURE GPRESSURE VOLUME PRESSAVG GPRESSAVG
ENERGY: 700000 0.0000 0.0000 0.0000 0.0000 -12331.1345 1759.2569 0.0000 0.0000 1251.8410 -9320.0366 214.4893 -10571.8776 -9317.4185 214.4893 -1091.3685 -1020.6237 29057.2156 -1091.3685 -1020.6237
ENERGY: 800000 0.0000 0.0000 0.0000 0.0000 -11784.3788 1674.1239 0.0000 0.0000 1410.8636 -8699.3913 241.7361 -10110.2549 -8695.0780 239.8570 -484.2915 -404.4481 29506.3841 2.8695 2.7336
TCL: Running 100000 steps at 270 kelvin.
TCL: Setting parameter langevinTemp to 270
TCL: Running for 100000 steps
ETITLE: TS BOND ANGLE DIHED IMPRP ELECT VDW BOUNDARY MISC KINETIC TOTAL TEMP POTENTIAL TOTAL3 TEMPAVG PRESSURE GPRESSURE VOLUME PRESSAVG GPRESSAVG
ENERGY: 800000 0.0000 0.0000 0.0000 0.0000 -11784.3788 1674.1239 0.0000 0.0000 1410.1603 -8700.0946 241.6156 -10110.2549 -8697.4117 241.6156 -495.6905 -403.8146 29506.3841 -495.6905 -403.8146
ENERGY: 900000 0.0000 0.0000 0.0000 0.0000 -11123.6422 1457.0084 0.0000 0.0000 1596.7458 -8069.8880 273.5850 -9666.6338 -8069.9875 270.1222 -671.7641 -593.7931 29671.9541 3.4389 3.3673
TCL: Running 1000000 steps at 300 kelvin.
TCL: Setting parameter langevinTemp to 300
TCL: Running for 1000000 steps
ETITLE: TS BOND ANGLE DIHED IMPRP ELECT VDW BOUNDARY MISC KINETIC TOTAL TEMP POTENTIAL TOTAL3 TEMPAVG PRESSURE GPRESSURE VOLUME PRESSAVG GPRESSAVG
ENERGY: 900000 0.0000 0.0000 0.0000 0.0000 -11123.6422 1457.0084 0.0000 0.0000 1595.9474 -8070.6864 273.4482 -9666.6338 -8068.1359 273.4482 -675.5937 -597.3685 29671.9541 -675.5937 -597.3685
ENERGY: 1100000 0.0000 0.0000 0.0000 0.0000 -10715.9424 1397.1413 0.0000 0.0000 1733.6004 -7585.2007 297.0335 -9318.8011 -7583.6604 300.0573 -216.4793 -71.9678 30091.8744 2.0503 2.1658
ENERGY: 1300000 0.0000 0.0000 0.0000 0.0000 -10728.5922 1470.7367 0.0000 0.0000 1749.4703 -7508.3852 299.7526 -9257.8555 -7505.4813 300.1964 303.8174 411.4531 30390.6018 3.7814 3.9656
ENERGY: 1500000 0.0000 0.0000 0.0000 0.0000 -10732.4665 1439.9658 0.0000 0.0000 1741.3252 -7551.1754 298.3571 -9292.5007 -7547.6476 300.1003 -44.3493 45.8223 30543.7936 4.7961 4.5954
ENERGY: 1700000 0.0000 0.0000 0.0000 0.0000 -10665.0056 1371.0713 0.0000 0.0000 1750.4875 -7543.4468 299.9269 -9293.9343 -7537.9176 300.1145 -441.3697 -359.5287 30348.1568 3.3806 3.5389
ENERGY: 1900000 0.0000 0.0000 0.0000 0.0000 -10687.3910 1365.8223 0.0000 0.0000 1800.4475 -7521.1211 308.4870 -9321.5687 -7515.7010 299.3969 -341.8609 -223.6961 29813.4133 2.2694 2.2459
TCL: Exiting due to exit command.
