Info: SIMULATION PARAMETERS:
Info: TIMESTEP               2
Info: NUMBER OF STEPS        0
Info: STEPS PER CYCLE        10
Info: PERIODIC CELL BASIS 1  36.592 0 0
Info: PERIODIC CELL BASIS 2  0 35.411 0
Info: PERIODIC CELL BASIS 3  0 0 34.229
Info: PERIODIC CELL CENTER   0 0 0
Info: WRAPPING WATERS AROUND PERIODIC BOUNDARIES ON OUTPUT.
Info: WRAPPING ALL CLUSTERS AROUND PERIODIC BOUNDARIES ON OUTPUT.
Info: FIRST LDB TIMESTEP     50
Info: LAST LDB TIMESTEP     -1
Info: HOM BACKGROUND SCALING 1
Info: PME BACKGROUND SCALING 1
Info: MIN ATOMS PER PATCH    40
Info: EMPTY PATCH LOAD       40 ATOMS
Info: INITIAL TEMPERATURE    300
Info: CENTER OF MASS MOVING INITIALLY? NO
Info: DIELECTRIC             1
Info: EXCLUDE                SCALED ONE-FOUR
Info: 1-4 ELECTROSTATICS SCALED BY 0.833333
Info: MODIFIED 1-4 VDW PARAMETERS WILL BE USED
Info: DCD FILENAME           mobley_6235784_equil.dcd
Info: DCD FREQUENCY          100000
Info: DCD FIRST STEP         100000
Info: DCD FILE WILL CONTAIN UNIT CELL DATA
Info: XST FILENAME           mobley_6235784_equil.xst
Info: XST FREQUENCY          100000
Info: NO VELOCITY DCD OUTPUT
Info: NO FORCE DCD OUTPUT
Info: OUTPUT FILENAME        mobley_6235784_equil
Info: BINARY OUTPUT FILES WILL BE USED
Info: RESTART FILENAME       mobley_6235784_equil.restart
Info: RESTART FREQUENCY      100000
Info: BINARY RESTART FILES WILL BE USED
Info: CUTOFF                 9
Info: PAIRLIST DISTANCE      11
Info: PAIRLIST SHRINK RATE   0.01
Info: PAIRLIST GROW RATE     0.01
Info: PAIRLIST TRIGGER       0.3
Info: PAIRLISTS PER CYCLE    2
Info: PAIRLISTS ENABLED
Info: MARGIN                 8
Info: HYDROGEN GROUP CUTOFF  2.5
Info: PATCH DIMENSION        21.5
Info: ENERGY OUTPUT STEPS    100000
Info: ENERGY EVALUATION STEPS    100000
Info: OUTPUT ENERGY PRECISION 4
Info: CROSSTERM ENERGY INCLUDED IN DIHEDRAL
Info: TIMING OUTPUT STEPS    1000000
Info: PRESSURE OUTPUT STEPS  100000
Info: FIXED ATOMS ACTIVE
Info: LANGEVIN DYNAMICS ACTIVE
Info: LANGEVIN TEMPERATURE   30
Info: LANGEVIN USING BBK INTEGRATOR
Info: LANGEVIN DAMPING COEFFICIENT IS 1 INVERSE PS
Info: LANGEVIN DYNAMICS APPLIED TO HYDROGENS
Info: LANGEVIN PISTON PRESSURE CONTROL ACTIVE
Info:        TARGET PRESSURE IS 1.01325 BAR
Info:     OSCILLATION PERIOD IS 50 FS
Info:             DECAY TIME IS 25 FS
Info:     PISTON TEMPERATURE IS 300 K
Info:       PRESSURE CONTROL IS GROUP-BASED
Info:    INITIAL STRAIN RATE IS 0 0 0
Info:       CELL FLUCTUATION IS ISOTROPIC
Info: PARTICLE MESH EWALD (PME) ACTIVE
Info: PME TOLERANCE               1e-06
Info: PME EWALD COEFFICIENT       0.348832
Info: PME INTERPOLATION ORDER     4
Info: PME GRID DIMENSIONS         40 36 36
Info: PME MAXIMUM GRID SPACING    1
Info: FULL ELECTROSTATIC EVALUATION FREQUENCY      2
Info: USING VERLET I (r-RESPA) MTS SCHEME.
Info: C1 SPLITTING OF LONG RANGE ELECTROSTATICS
Info: PLACING ATOMS IN PATCHES BY HYDROGEN GROUPS
Info: RIGID BONDS TO HYDROGEN : ALL
Info:         ERROR TOLERANCE : 1e-08
Info:          MAX ITERATIONS : 100
Info: RIGID WATER USING SETTLE ALGORITHM
Info: RANDOM NUMBER SEED     1743901203
Info: USE HYDROGEN BONDS?    NO
Info: Using AMBER format force field!
Info: AMBER PARM FILE        mobley_6235784.prmtop
Info: COORDINATE PDB         mobley_6235784.pdb
Info: Exclusions will be read from PARM file!
Info: SCNB (VDW SCALING)     2
Info: USING ARITHMETIC MEAN TO COMBINE L-J SIGMA PARAMETERS
Info: BINARY COORDINATES     mobley_6235784_min.coor
Info: SUMMARY OF PARAMETERS:
Info: 6 BONDS
Info: 6 ANGLES
Info: 8 DIHEDRAL
Info: 0 IMPROPER
Info: 0 CROSSTERM
Info: 0 VDW
Info: 21 VDW_PAIRS
Info: 0 NBTHOLE_PAIRS
Info: STRUCTURE SUMMARY:
Info: 2951 ATOMS
Info: 2950 BONDS
Info: 24 ANGLES
Info: 34 DIHEDRALS
Info: 0 IMPROPERS
Info: 0 CROSSTERMS
Info: 3001 EXCLUSIONS
Info: 14 FIXED ATOMS
Info: 2946 RIGID BONDS
Info: 9 RIGID BONDS BETWEEN FIXED ATOMS
Info: 5874 DEGREES OF FREEDOM
Info: 984 HYDROGEN GROUPS
Info: 4 ATOMS IN LARGEST HYDROGEN GROUP
Info: 984 MIGRATION GROUPS
Info: 4 ATOMS IN LARGEST MIGRATION GROUP
Info: 5 HYDROGEN GROUPS WITH ALL ATOMS FIXED
Info: TOTAL MASS = 17730.2 amu
Info: TOTAL CHARGE = -1.49012e-08 e
Info: MASS DENSITY = 0.663827 g/cm^3
Info: ATOM DENSITY = 0.0665351 atoms/A^3
Info: ADDED 0 IMPLICIT EXCLUSIONS
Info: NONBONDED TABLE R-SQUARED SPACING: 0.0625
Info: NONBONDED TABLE SIZE: 705 POINTS
Info: REMOVING COM VELOCITY -0.0256511 0.0340264 -0.0763129
TCL: Running for 100000 steps
ETITLE: TS BOND ANGLE DIHED IMPRP ELECT VDW BOUNDARY MISC KINETIC TOTAL TEMP POTENTIAL TOTAL3 TEMPAVG PRESSURE GPRESSURE VOLUME PRESSAVG GPRESSAVG
ENERGY: 0 0.0000 0.0000 0.0000 0.0000 -13670.4743 2412.0707 0.0000 0.0000 1804.1145 -9454.2892 309.1153 -11258.4036 -9453.9198 309.1153 441.7778 478.0003 44352.5455 441.7778 478.0003
ENERGY: 100000 0.0000 0.0000 0.0000 0.0000 -14175.2009 2446.4635 0.0000 0.0000 173.4273 -11555.3100 29.7149 -11728.7373 -11555.1112 30.8720 -370.9252 -326.1801 29483.3460 4.5951 4.5974
TCL: Running 100000 steps at 60 kelvin.
TCL: Setting parameter langevinTemp to 60
TCL: Running for 100000 steps
ETITLE: TS BOND ANGLE DIHED IMPRP ELECT VDW BOUNDARY MISC KINETIC TOTAL TEMP POTENTIAL TOTAL3 TEMPAVG PRESSURE GPRESSURE VOLUME PRESSAVG GPRESSAVG
ENERGY: 100000 0.0000 0.0000 0.0000 0.0000 -14175.2009 2446.4635 0.0000 0.0000 173.3392 -11555.3981 29.6998 -11728.7373 -11554.9888 29.6998 -374.8848 -326.4599 29483.3460 -374.8848 -326.4599
ENERGY: 200000 0.0000 0.0000 0.0000 0.0000 -13974.3076 2336.3268 0.0000 0.0000 354.4893 -11283.4915 60.7379 -11637.9807 -11282.1574 59.9367 -832.1571 -779.3535 29596.3906 3.4551 3.4747
TCL: Running 100000 steps at 90 kelvin.
TCL: Setting parameter langevinTemp to 90
TCL: Running for 100000 steps
ETITLE: TS BOND ANGLE DIHED IMPRP ELECT VDW BOUNDARY MISC KINETIC TOTAL TEMP POTENTIAL TOTAL3 TEMPAVG PRESSURE GPRESSURE VOLUME PRESSAVG GPRESSAVG
ENERGY: 200000 0.0000 0.0000 0.0000 0.0000 -13974.3076 2336.3268 0.0000 0.0000 354.3223 -11283.6585 60.7093 -11637.9807 -11282.9508 60.7093 -839.1425 -779.1296 29596.3906 -839.1425 -779.1296
ENERGY: 300000 0.0000 0.0000 0.0000 0.0000 -13896.2443 2310.9229 0.0000 0.0000 527.0777 -11058.2437 90.3090 -11585.3214 -11056.4429 89.8454 -736.6079 -704.1083 29144.1347 4.9378 4.9101
TCL: Running 100000 steps at 120 kelvin.
TCL: Setting parameter langevinTemp to 120
TCL: Running for 100000 steps
ETITLE: TS BOND ANGLE DIHED IMPRP ELECT VDW BOUNDARY MISC KINETIC TOTAL TEMP POTENTIAL TOTAL3 TEMPAVG PRESSURE GPRESSURE VOLUME PRESSAVG GPRESSAVG
ENERGY: 300000 0.0000 0.0000 0.0000 0.0000 -13896.2443 2310.9229 0.0000 0.0000 526.8199 -11058.5015 90.2648 -11585.3214 -11057.3528 90.2648 -751.2059 -703.9286 29144.1347 -751.2059 -703.9286
ENERGY: 400000 0.0000 0.0000 0.0000 0.0000 -13885.9237 2404.0014 0.0000 0.0000 715.7240 -10766.1983 122.6315 -11481.9223 -10764.6140 120.1869 567.7503 641.0415 28641.6087 4.0172 3.9815
TCL: Running 100000 steps at 150 kelvin.
TCL: Setting parameter langevinTemp to 150
TCL: Running for 100000 steps
ETITLE: TS BOND ANGLE DIHED IMPRP ELECT VDW BOUNDARY MISC KINETIC TOTAL TEMP POTENTIAL TOTAL3 TEMPAVG PRESSURE GPRESSURE VOLUME PRESSAVG GPRESSAVG
ENERGY: 400000 0.0000 0.0000 0.0000 0.0000 -13885.9237 2404.0014 0.0000 0.0000 715.3873 -10766.5350 122.5738 -11481.9223 -10765.0845 122.5738 579.8312 640.6227 28641.6087 579.8312 640.6227
ENERGY: 500000 0.0000 0.0000 0.0000 0.0000 -13545.7917 2254.6255 0.0000 0.0000 891.0999 -10400.0663 152.6802 -11291.1661 -10397.2736 149.7354 -252.2704 -182.1787 29379.1216 3.6784 3.8562
TCL: Running 100000 steps at 180 kelvin.
TCL: Setting parameter langevinTemp to 180
TCL: Running for 100000 steps
ETITLE: TS BOND ANGLE DIHED IMPRP ELECT VDW BOUNDARY MISC KINETIC TOTAL TEMP POTENTIAL TOTAL3 TEMPAVG PRESSURE GPRESSURE VOLUME PRESSAVG GPRESSAVG
ENERGY: 500000 0.0000 0.0000 0.0000 0.0000 -13545.7917 2254.6255 0.0000 0.0000 890.6659 -10400.5002 152.6059 -11291.1661 -10398.9713 152.6059 -222.8129 -182.0020 29379.1216 -222.8129 -182.0020
ENERGY: 600000 0.0000 0.0000 0.0000 0.0000 -13139.0406 2108.9735 0.0000 0.0000 1059.7488 -9970.3184 181.5764 -11030.0671 -9966.9815 179.7885 -225.4323 -173.6861 28769.6723 4.2841 4.2346
TCL: Running 100000 steps at 210 kelvin.
TCL: Setting parameter langevinTemp to 210
TCL: Running for 100000 steps
ETITLE: TS BOND ANGLE DIHED IMPRP ELECT VDW BOUNDARY MISC KINETIC TOTAL TEMP POTENTIAL TOTAL3 TEMPAVG PRESSURE GPRESSURE VOLUME PRESSAVG GPRESSAVG
ENERGY: 600000 0.0000 0.0000 0.0000 0.0000 -13139.0406 2108.9735 0.0000 0.0000 1059.2317 -9970.8355 181.4878 -11030.0671 -9968.7046 181.4878 -237.0395 -174.0742 28769.6723 -237.0395 -174.0742
ENERGY: 700000 0.0000 0.0000 0.0000 0.0000 -12378.7116 1857.4316 0.0000 0.0000 1197.1985 -9324.0814 205.1269 -10521.2799 -9322.1631 209.5220 -275.1729 -208.2363 28854.4961 2.5404 2.4952
TCL: Running 100000 steps at 240 kelvin.
TCL: Setting parameter langevinTemp to 240
TCL: Running for 100000 steps
ETITLE: TS BOND ANGLE DIHED IMPRP ELECT VDW BOUNDARY MISC KINETIC TOTAL TEMP POTENTIAL TOTAL3 TEMPAVG PRESSURE GPRESSURE VOLUME PRESSAVG GPRESSAVG
ENERGY: 700000 0.0000 0.0000 0.0000 0.0000 -12378.7116 1857.4316 0.0000 0.0000 1196.5771 -9324.7028 205.0204 -10521.2799 -9322.7013 205.0204 -269.1242 -209.7159 28854.4961 -269.1242 -209.7159
ENERGY: 800000 0.0000 0.0000 0.0000 0.0000 -11790.4655 1748.7878 0.0000 0.0000 1406.4774 -8635.2003 240.9846 -10041.6777 -8630.4276 239.8454 570.8328 719.1299 28664.9114 3.3002 3.1526
TCL: Running 100000 steps at 270 kelvin.
TCL: Setting parameter langevinTemp to 270
TCL: Running for 100000 steps
ETITLE: TS BOND ANGLE DIHED IMPRP ELECT VDW BOUNDARY MISC KINETIC TOTAL TEMP POTENTIAL TOTAL3 TEMPAVG PRESSURE GPRESSURE VOLUME PRESSAVG GPRESSAVG
ENERGY: 800000 0.0000 0.0000 0.0000 0.0000 -11790.4655 1748.7878 0.0000 0.0000 1405.7699 -8635.9078 240.8633 -10041.6777 -8633.8636 240.8633 649.3166 720.4585 28664.9114 649.3166 720.4585
ENERGY: 900000 0.0000 0.0000 0.0000 0.0000 -11263.2798 1552.8095 0.0000 0.0000 1617.2695 -8093.2009 277.1015 -9710.4703 -8087.9767 269.6821 -198.3623 -96.5139 29568.1661 2.9320 2.7522
TCL: Running 1000000 steps at 300 kelvin.
TCL: Setting parameter langevinTemp to 300
TCL: Running for 1000000 steps
ETITLE: TS BOND ANGLE DIHED IMPRP ELECT VDW BOUNDARY MISC KINETIC TOTAL TEMP POTENTIAL TOTAL3 TEMPAVG PRESSURE GPRESSURE VOLUME PRESSAVG GPRESSAVG
ENERGY: 900000 0.0000 0.0000 0.0000 0.0000 -11263.2798 1552.8095 0.0000 0.0000 1616.4798 -8093.9905 276.9662 -9710.4703 -8091.6368 276.9662 -182.4430 -94.6343 29568.1661 -182.4430 -94.6343
ENERGY: 1100000 0.0000 0.0000 0.0000 0.0000 -10675.4268 1387.1317 0.0000 0.0000 1741.7487 -7546.5465 298.4296 -9288.2952 -7545.3027 299.9547 -465.3960 -405.7275 30435.5200 2.3572 2.5360
ENERGY: 1300000 0.0000 0.0000 0.0000 0.0000 -10806.3343 1491.6785 0.0000 0.0000 1787.3201 -7527.3357 306.2378 -9314.6558 -7524.9599 300.3161 393.9592 425.0503 30254.5702 3.3438 3.3415
ENERGY: 1500000 0.0000 0.0000 0.0000 0.0000 -10691.9308 1451.9864 0.0000 0.0000 1725.0114 -7514.9330 295.5619 -9239.9444 -7511.2165 300.1190 226.1480 278.8077 30339.3130 2.5404 2.4398
ENERGY: 1700000 0.0000 0.0000 0.0000 0.0000 -10725.1514 1440.0271 0.0000 0.0000 1706.0529 -7579.0713 292.3135 -9285.1242 -7576.2946 300.0314 -105.5457 35.0524 30376.2733 3.6013 3.4547
ENERGY: 1900000 0.0000 0.0000 0.0000 0.0000 -10701.2243 1384.7040 0.0000 0.0000 1758.4768 -7558.0436 301.2958 -9316.5204 -7556.1805 300.1805 -566.0630 -506.1658 30343.6041 4.3471 4.5182
TCL: Exiting due to exit command.
