Info: SIMULATION PARAMETERS:
Info: TIMESTEP               2
Info: NUMBER OF STEPS        0
Info: STEPS PER CYCLE        10
Info: PERIODIC CELL BASIS 1  36.592 0 0
Info: PERIODIC CELL BASIS 2  0 36.611 0
Info: PERIODIC CELL BASIS 3  0 0 33.27
Info: PERIODIC CELL CENTER   0 0 0
Info: WRAPPING WATERS AROUND PERIODIC BOUNDARIES ON OUTPUT.
Info: WRAPPING ALL CLUSTERS AROUND PERIODIC BOUNDARIES ON OUTPUT.
Info: FIRST LDB TIMESTEP     50
Info: LAST LDB TIMESTEP     -1
Info: HOM BACKGROUND SCALING 1
Info: PME BACKGROUND SCALING 1
Info: MIN ATOMS PER PATCH    40
Info: EMPTY PATCH LOAD       40 ATOMS
Info: INITIAL TEMPERATURE    300
Info: CENTER OF MASS MOVING INITIALLY? NO
Info: DIELECTRIC             1
Info: EXCLUDE                SCALED ONE-FOUR
Info: 1-4 ELECTROSTATICS SCALED BY 0.833333
Info: MODIFIED 1-4 VDW PARAMETERS WILL BE USED
Info: DCD FILENAME           mobley_2371092_equil.dcd
Info: DCD FREQUENCY          100000
Info: DCD FIRST STEP         100000
Info: DCD FILE WILL CONTAIN UNIT CELL DATA
Info: XST FILENAME           mobley_2371092_equil.xst
Info: XST FREQUENCY          100000
Info: NO VELOCITY DCD OUTPUT
Info: NO FORCE DCD OUTPUT
Info: OUTPUT FILENAME        mobley_2371092_equil
Info: BINARY OUTPUT FILES WILL BE USED
Info: RESTART FILENAME       mobley_2371092_equil.restart
Info: RESTART FREQUENCY      100000
Info: BINARY RESTART FILES WILL BE USED
Info: CUTOFF                 9
Info: PAIRLIST DISTANCE      11
Info: PAIRLIST SHRINK RATE   0.01
Info: PAIRLIST GROW RATE     0.01
Info: PAIRLIST TRIGGER       0.3
Info: PAIRLISTS PER CYCLE    2
Info: PAIRLISTS ENABLED
Info: MARGIN                 8
Info: HYDROGEN GROUP CUTOFF  2.5
Info: PATCH DIMENSION        21.5
Info: ENERGY OUTPUT STEPS    100000
Info: ENERGY EVALUATION STEPS    100000
Info: OUTPUT ENERGY PRECISION 4
Info: CROSSTERM ENERGY INCLUDED IN DIHEDRAL
Info: TIMING OUTPUT STEPS    1000000
Info: PRESSURE OUTPUT STEPS  100000
Info: FIXED ATOMS ACTIVE
Info: LANGEVIN DYNAMICS ACTIVE
Info: LANGEVIN TEMPERATURE   30
Info: LANGEVIN USING BBK INTEGRATOR
Info: LANGEVIN DAMPING COEFFICIENT IS 1 INVERSE PS
Info: LANGEVIN DYNAMICS APPLIED TO HYDROGENS
Info: LANGEVIN PISTON PRESSURE CONTROL ACTIVE
Info:        TARGET PRESSURE IS 1.01325 BAR
Info:     OSCILLATION PERIOD IS 50 FS
Info:             DECAY TIME IS 25 FS
Info:     PISTON TEMPERATURE IS 300 K
Info:       PRESSURE CONTROL IS GROUP-BASED
Info:    INITIAL STRAIN RATE IS 0 0 0
Info:       CELL FLUCTUATION IS ISOTROPIC
Info: PARTICLE MESH EWALD (PME) ACTIVE
Info: PME TOLERANCE               1e-06
Info: PME EWALD COEFFICIENT       0.348832
Info: PME INTERPOLATION ORDER     4
Info: PME GRID DIMENSIONS         40 40 36
Info: PME MAXIMUM GRID SPACING    1
Info: FULL ELECTROSTATIC EVALUATION FREQUENCY      2
Info: USING VERLET I (r-RESPA) MTS SCHEME.
Info: C1 SPLITTING OF LONG RANGE ELECTROSTATICS
Info: PLACING ATOMS IN PATCHES BY HYDROGEN GROUPS
Info: RIGID BONDS TO HYDROGEN : ALL
Info:         ERROR TOLERANCE : 1e-08
Info:          MAX ITERATIONS : 100
Info: RIGID WATER USING SETTLE ALGORITHM
Info: RANDOM NUMBER SEED     1743739354
Info: USE HYDROGEN BONDS?    NO
Info: Using AMBER format force field!
Info: AMBER PARM FILE        mobley_2371092.prmtop
Info: COORDINATE PDB         mobley_2371092.pdb
Info: Exclusions will be read from PARM file!
Info: SCNB (VDW SCALING)     2
Info: USING ARITHMETIC MEAN TO COMBINE L-J SIGMA PARAMETERS
Info: BINARY COORDINATES     mobley_2371092_min.coor
Info: SUMMARY OF PARAMETERS:
Info: 8 BONDS
Info: 9 ANGLES
Info:   9 HARMONIC
Info:   0 COSINE-BASED
Info: 4 DIHEDRAL
Info: 0 IMPROPER
Info: 0 CROSSTERM
Info: 0 VDW
Info: 36 VDW_PAIRS
Info: 0 NBTHOLE_PAIRS
Info: STRUCTURE SUMMARY:
Info: 2942 ATOMS
Info: 2942 BONDS
Info: 28 ANGLES
Info: 37 DIHEDRALS
Info: 0 IMPROPERS
Info: 0 CROSSTERMS
Info: 2999 EXCLUSIONS
Info: 17 FIXED ATOMS
Info: 2934 RIGID BONDS
Info: 9 RIGID BONDS BETWEEN FIXED ATOMS
Info: 5850 DEGREES OF FREEDOM
Info: 983 HYDROGEN GROUPS
Info: 4 ATOMS IN LARGEST HYDROGEN GROUP
Info: 983 MIGRATION GROUPS
Info: 4 ATOMS IN LARGEST MIGRATION GROUP
Info: 8 HYDROGEN GROUPS WITH ALL ATOMS FIXED
Info: TOTAL MASS = 17672.8 amu
Info: TOTAL CHARGE = 0.00029997 e
Info: MASS DENSITY = 0.658435 g/cm^3
Info: ATOM DENSITY = 0.0660073 atoms/A^3
Info: ADDED 0 IMPLICIT EXCLUSIONS
Info: NONBONDED TABLE R-SQUARED SPACING: 0.0625
Info: NONBONDED TABLE SIZE: 705 POINTS
Info: REMOVING COM VELOCITY -0.130744 0.0359163 0.183038
TCL: Running for 100000 steps
ETITLE: TS BOND ANGLE DIHED IMPRP ELECT VDW BOUNDARY MISC KINETIC TOTAL TEMP POTENTIAL TOTAL3 TEMPAVG PRESSURE GPRESSURE VOLUME PRESSAVG GPRESSAVG
ENERGY: 0 0.0000 0.0000 0.0000 0.0000 -13714.4501 2423.9920 0.0000 0.0000 1780.8990 -9509.5591 306.3894 -11290.4581 -9509.2010 306.3894 501.8842 538.4790 44570.8113 501.8842 538.4790
ENERGY: 100000 0.0000 0.0000 0.0000 0.0000 -14051.2721 2317.1477 0.0000 0.0000 171.8268 -11562.2976 29.5614 -11734.1244 -11561.9436 30.9034 -1145.8926 -1110.1811 29107.3132 5.0026 4.9630
TCL: Running 100000 steps at 60 kelvin.
TCL: Setting parameter langevinTemp to 60
TCL: Running for 100000 steps
ETITLE: TS BOND ANGLE DIHED IMPRP ELECT VDW BOUNDARY MISC KINETIC TOTAL TEMP POTENTIAL TOTAL3 TEMPAVG PRESSURE GPRESSURE VOLUME PRESSAVG GPRESSAVG
ENERGY: 100000 0.0000 0.0000 0.0000 0.0000 -14051.2721 2317.1477 0.0000 0.0000 171.7381 -11562.3863 29.5462 -11734.1244 -11561.9726 29.5462 -1157.9174 -1110.3760 29107.3132 -1157.9174 -1110.3760
ENERGY: 200000 0.0000 0.0000 0.0000 0.0000 -14050.5678 2369.5713 0.0000 0.0000 342.7750 -11338.2214 58.9717 -11680.9964 -11337.2819 59.8717 -507.6620 -453.9475 29063.7344 3.9263 3.8771
TCL: Running 100000 steps at 90 kelvin.
TCL: Setting parameter langevinTemp to 90
TCL: Running for 100000 steps
ETITLE: TS BOND ANGLE DIHED IMPRP ELECT VDW BOUNDARY MISC KINETIC TOTAL TEMP POTENTIAL TOTAL3 TEMPAVG PRESSURE GPRESSURE VOLUME PRESSAVG GPRESSAVG
ENERGY: 200000 0.0000 0.0000 0.0000 0.0000 -14050.5678 2369.5713 0.0000 0.0000 342.6008 -11338.3957 58.9417 -11680.9964 -11337.6061 58.9417 -493.3810 -453.6305 29063.7344 -493.3810 -453.6305
ENERGY: 300000 0.0000 0.0000 0.0000 0.0000 -14026.1935 2444.4715 0.0000 0.0000 528.7642 -11052.9577 90.9697 -11581.7220 -11052.0408 89.9493 614.9216 682.3027 28775.9016 3.7323 3.7631
TCL: Running 100000 steps at 120 kelvin.
TCL: Setting parameter langevinTemp to 120
TCL: Running for 100000 steps
ETITLE: TS BOND ANGLE DIHED IMPRP ELECT VDW BOUNDARY MISC KINETIC TOTAL TEMP POTENTIAL TOTAL3 TEMPAVG PRESSURE GPRESSURE VOLUME PRESSAVG GPRESSAVG
ENERGY: 300000 0.0000 0.0000 0.0000 0.0000 -14026.1935 2444.4715 0.0000 0.0000 528.5057 -11053.2163 90.9252 -11581.7220 -11052.2668 90.9252 641.1027 682.4255 28775.9016 641.1027 682.4255
ENERGY: 400000 0.0000 0.0000 0.0000 0.0000 -13718.3377 2282.0914 0.0000 0.0000 689.4163 -10746.8300 118.6086 -11436.2463 -10745.1775 119.9270 -338.1805 -277.9978 29021.2686 3.9054 3.9533
TCL: Running 100000 steps at 150 kelvin.
TCL: Setting parameter langevinTemp to 150
TCL: Running for 100000 steps
ETITLE: TS BOND ANGLE DIHED IMPRP ELECT VDW BOUNDARY MISC KINETIC TOTAL TEMP POTENTIAL TOTAL3 TEMPAVG PRESSURE GPRESSURE VOLUME PRESSAVG GPRESSAVG
ENERGY: 400000 0.0000 0.0000 0.0000 0.0000 -13718.3377 2282.0914 0.0000 0.0000 689.0840 -10747.1624 118.5514 -11436.2463 -10745.6108 118.5514 -336.0199 -277.4000 29021.2686 -336.0199 -277.4000
ENERGY: 500000 0.0000 0.0000 0.0000 0.0000 -13550.4530 2266.4133 0.0000 0.0000 866.5835 -10417.4562 149.0888 -11284.0397 -10414.6960 149.6956 130.1934 209.9651 28812.9005 4.5160 4.3330
TCL: Running 100000 steps at 180 kelvin.
TCL: Setting parameter langevinTemp to 180
TCL: Running for 100000 steps
ETITLE: TS BOND ANGLE DIHED IMPRP ELECT VDW BOUNDARY MISC KINETIC TOTAL TEMP POTENTIAL TOTAL3 TEMPAVG PRESSURE GPRESSURE VOLUME PRESSAVG GPRESSAVG
ENERGY: 500000 0.0000 0.0000 0.0000 0.0000 -13550.4530 2266.4133 0.0000 0.0000 866.1709 -10417.8688 149.0178 -11284.0397 -10416.3862 149.0178 144.4227 211.2283 28812.9005 144.4227 211.2283
ENERGY: 600000 0.0000 0.0000 0.0000 0.0000 -13150.2412 2132.7558 0.0000 0.0000 1068.5676 -9948.9178 183.8385 -11017.4854 -9945.2886 179.8527 344.0407 455.4081 28399.1033 5.1125 5.0977
TCL: Running 100000 steps at 210 kelvin.
TCL: Setting parameter langevinTemp to 210
TCL: Running for 100000 steps
ETITLE: TS BOND ANGLE DIHED IMPRP ELECT VDW BOUNDARY MISC KINETIC TOTAL TEMP POTENTIAL TOTAL3 TEMPAVG PRESSURE GPRESSURE VOLUME PRESSAVG GPRESSAVG
ENERGY: 600000 0.0000 0.0000 0.0000 0.0000 -13150.2412 2132.7558 0.0000 0.0000 1068.0274 -9949.4580 183.7456 -11017.4854 -9947.6466 183.7456 385.2778 456.8073 28399.1033 385.2778 456.8073
ENERGY: 700000 0.0000 0.0000 0.0000 0.0000 -12396.7125 1857.8848 0.0000 0.0000 1243.7867 -9295.0410 213.9836 -10538.8277 -9290.8174 209.4970 -291.1440 -212.0125 28740.7622 3.3207 3.0448
TCL: Running 100000 steps at 240 kelvin.
TCL: Setting parameter langevinTemp to 240
TCL: Running for 100000 steps
ETITLE: TS BOND ANGLE DIHED IMPRP ELECT VDW BOUNDARY MISC KINETIC TOTAL TEMP POTENTIAL TOTAL3 TEMPAVG PRESSURE GPRESSURE VOLUME PRESSAVG GPRESSAVG
ENERGY: 700000 0.0000 0.0000 0.0000 0.0000 -12396.7125 1857.8848 0.0000 0.0000 1243.2084 -9295.6193 213.8841 -10538.8277 -9293.8048 213.8841 -272.9324 -210.5099 28740.7622 -272.9324 -210.5099
ENERGY: 800000 0.0000 0.0000 0.0000 0.0000 -11603.7322 1567.6201 0.0000 0.0000 1380.4667 -8655.6455 237.4983 -10036.1122 -8653.8486 239.7709 -1281.5113 -1161.6417 29430.8623 4.4255 4.3449
TCL: Running 100000 steps at 270 kelvin.
TCL: Setting parameter langevinTemp to 270
TCL: Running for 100000 steps
ETITLE: TS BOND ANGLE DIHED IMPRP ELECT VDW BOUNDARY MISC KINETIC TOTAL TEMP POTENTIAL TOTAL3 TEMPAVG PRESSURE GPRESSURE VOLUME PRESSAVG GPRESSAVG
ENERGY: 800000 0.0000 0.0000 0.0000 0.0000 -11603.7322 1567.6201 0.0000 0.0000 1379.7757 -8656.3364 237.3794 -10036.1122 -8653.9130 237.3794 -1255.5572 -1161.8065 29430.8623 -1255.5572 -1161.8065
ENERGY: 900000 0.0000 0.0000 0.0000 0.0000 -11290.4739 1590.9613 0.0000 0.0000 1573.2389 -8126.2737 270.6632 -9699.5126 -8122.9369 269.5086 405.8236 491.3931 29072.8804 3.3774 3.2059
TCL: Running 1000000 steps at 300 kelvin.
TCL: Setting parameter langevinTemp to 300
TCL: Running for 1000000 steps
ETITLE: TS BOND ANGLE DIHED IMPRP ELECT VDW BOUNDARY MISC KINETIC TOTAL TEMP POTENTIAL TOTAL3 TEMPAVG PRESSURE GPRESSURE VOLUME PRESSAVG GPRESSAVG
ENERGY: 900000 0.0000 0.0000 0.0000 0.0000 -11290.4739 1590.9613 0.0000 0.0000 1572.4463 -8127.0663 270.5268 -9699.5126 -8124.8681 270.5268 404.3891 490.8747 29072.8804 404.3891 490.8747
ENERGY: 1100000 0.0000 0.0000 0.0000 0.0000 -10760.3043 1506.8020 0.0000 0.0000 1807.8565 -7445.6458 311.0273 -9253.5023 -7443.7498 300.1615 711.7152 858.4926 30048.5667 3.7927 3.6876
ENERGY: 1300000 0.0000 0.0000 0.0000 0.0000 -10744.7981 1443.7567 0.0000 0.0000 1708.3439 -7592.6975 293.9069 -9301.0414 -7587.7977 299.8189 -113.1732 -62.4925 30362.9718 3.8356 3.7975
ENERGY: 1500000 0.0000 0.0000 0.0000 0.0000 -10822.7109 1480.5784 0.0000 0.0000 1715.3817 -7626.7509 295.1177 -9342.1325 -7625.0728 300.5550 155.6541 248.7808 30109.1957 3.9952 3.9664
ENERGY: 1700000 0.0000 0.0000 0.0000 0.0000 -10709.9503 1453.5477 0.0000 0.0000 1782.0826 -7474.3201 306.5931 -9256.4026 -7472.1871 300.3374 216.1866 284.6528 30498.3944 2.6996 2.5908
ENERGY: 1900000 0.0000 0.0000 0.0000 0.0000 -10656.6496 1357.4575 0.0000 0.0000 1783.9356 -7515.2566 306.9119 -9299.1922 -7512.8830 300.5178 -550.4052 -405.0623 30305.4508 3.2194 3.0723
TCL: Exiting due to exit command.
