Info: SIMULATION PARAMETERS:
Info: TIMESTEP               2
Info: NUMBER OF STEPS        0
Info: STEPS PER CYCLE        10
Info: PERIODIC CELL BASIS 1  36.592 0 0
Info: PERIODIC CELL BASIS 2  0 35.411 0
Info: PERIODIC CELL BASIS 3  0 0 34.229
Info: PERIODIC CELL CENTER   0 0 0
Info: WRAPPING WATERS AROUND PERIODIC BOUNDARIES ON OUTPUT.
Info: WRAPPING ALL CLUSTERS AROUND PERIODIC BOUNDARIES ON OUTPUT.
Info: FIRST LDB TIMESTEP     50
Info: LAST LDB TIMESTEP     -1
Info: HOM BACKGROUND SCALING 1
Info: PME BACKGROUND SCALING 1
Info: MIN ATOMS PER PATCH    40
Info: EMPTY PATCH LOAD       40 ATOMS
Info: INITIAL TEMPERATURE    300
Info: CENTER OF MASS MOVING INITIALLY? NO
Info: DIELECTRIC             1
Info: EXCLUDE                SCALED ONE-FOUR
Info: 1-4 ELECTROSTATICS SCALED BY 0.833333
Info: MODIFIED 1-4 VDW PARAMETERS WILL BE USED
Info: DCD FILENAME           mobley_2771569_equil.dcd
Info: DCD FREQUENCY          100000
Info: DCD FIRST STEP         100000
Info: DCD FILE WILL CONTAIN UNIT CELL DATA
Info: XST FILENAME           mobley_2771569_equil.xst
Info: XST FREQUENCY          100000
Info: NO VELOCITY DCD OUTPUT
Info: NO FORCE DCD OUTPUT
Info: OUTPUT FILENAME        mobley_2771569_equil
Info: BINARY OUTPUT FILES WILL BE USED
Info: RESTART FILENAME       mobley_2771569_equil.restart
Info: RESTART FREQUENCY      100000
Info: BINARY RESTART FILES WILL BE USED
Info: CUTOFF                 9
Info: PAIRLIST DISTANCE      11
Info: PAIRLIST SHRINK RATE   0.01
Info: PAIRLIST GROW RATE     0.01
Info: PAIRLIST TRIGGER       0.3
Info: PAIRLISTS PER CYCLE    2
Info: PAIRLISTS ENABLED
Info: MARGIN                 8
Info: HYDROGEN GROUP CUTOFF  2.5
Info: PATCH DIMENSION        21.5
Info: ENERGY OUTPUT STEPS    100000
Info: ENERGY EVALUATION STEPS    100000
Info: OUTPUT ENERGY PRECISION 4
Info: CROSSTERM ENERGY INCLUDED IN DIHEDRAL
Info: TIMING OUTPUT STEPS    1000000
Info: PRESSURE OUTPUT STEPS  100000
Info: FIXED ATOMS ACTIVE
Info: LANGEVIN DYNAMICS ACTIVE
Info: LANGEVIN TEMPERATURE   30
Info: LANGEVIN USING BBK INTEGRATOR
Info: LANGEVIN DAMPING COEFFICIENT IS 1 INVERSE PS
Info: LANGEVIN DYNAMICS APPLIED TO HYDROGENS
Info: LANGEVIN PISTON PRESSURE CONTROL ACTIVE
Info:        TARGET PRESSURE IS 1.01325 BAR
Info:     OSCILLATION PERIOD IS 50 FS
Info:             DECAY TIME IS 25 FS
Info:     PISTON TEMPERATURE IS 300 K
Info:       PRESSURE CONTROL IS GROUP-BASED
Info:    INITIAL STRAIN RATE IS 0 0 0
Info:       CELL FLUCTUATION IS ISOTROPIC
Info: PARTICLE MESH EWALD (PME) ACTIVE
Info: PME TOLERANCE               1e-06
Info: PME EWALD COEFFICIENT       0.348832
Info: PME INTERPOLATION ORDER     4
Info: PME GRID DIMENSIONS         40 36 36
Info: PME MAXIMUM GRID SPACING    1
Info: FULL ELECTROSTATIC EVALUATION FREQUENCY      2
Info: USING VERLET I (r-RESPA) MTS SCHEME.
Info: C1 SPLITTING OF LONG RANGE ELECTROSTATICS
Info: PLACING ATOMS IN PATCHES BY HYDROGEN GROUPS
Info: RIGID BONDS TO HYDROGEN : ALL
Info:         ERROR TOLERANCE : 1e-08
Info:          MAX ITERATIONS : 100
Info: RIGID WATER USING SETTLE ALGORITHM
Info: RANDOM NUMBER SEED     1743743041
Info: USE HYDROGEN BONDS?    NO
Info: Using AMBER format force field!
Info: AMBER PARM FILE        mobley_2771569.prmtop
Info: COORDINATE PDB         mobley_2771569.pdb
Info: Exclusions will be read from PARM file!
Info: SCNB (VDW SCALING)     2
Info: USING ARITHMETIC MEAN TO COMBINE L-J SIGMA PARAMETERS
Info: BINARY COORDINATES     mobley_2771569_min.coor
Info: SUMMARY OF PARAMETERS:
Info: 6 BONDS
Info: 6 ANGLES
Info:   6 HARMONIC
Info:   0 COSINE-BASED
Info: 3 DIHEDRAL
Info: 0 IMPROPER
Info: 0 CROSSTERM
Info: 0 VDW
Info: 21 VDW_PAIRS
Info: 0 NBTHOLE_PAIRS
Info: STRUCTURE SUMMARY:
Info: 2959 ATOMS
Info: 2959 BONDS
Info: 36 ANGLES
Info: 54 DIHEDRALS
Info: 0 IMPROPERS
Info: 0 CROSSTERMS
Info: 3040 EXCLUSIONS
Info: 19 FIXED ATOMS
Info: 2952 RIGID BONDS
Info: 12 RIGID BONDS BETWEEN FIXED ATOMS
Info: 5880 DEGREES OF FREEDOM
Info: 987 HYDROGEN GROUPS
Info: 4 ATOMS IN LARGEST HYDROGEN GROUP
Info: 987 MIGRATION GROUPS
Info: 4 ATOMS IN LARGEST MIGRATION GROUP
Info: 7 HYDROGEN GROUPS WITH ALL ATOMS FIXED
Info: TOTAL MASS = 17755.8 amu
Info: TOTAL CHARGE = 9.99197e-05 e
Info: MASS DENSITY = 0.664786 g/cm^3
Info: ATOM DENSITY = 0.0667154 atoms/A^3
Info: ADDED 0 IMPLICIT EXCLUSIONS
Info: NONBONDED TABLE R-SQUARED SPACING: 0.0625
Info: NONBONDED TABLE SIZE: 705 POINTS
Info: REMOVING COM VELOCITY 0.0347592 -0.0735668 -0.0365966
TCL: Running for 100000 steps
ETITLE: TS BOND ANGLE DIHED IMPRP ELECT VDW BOUNDARY MISC KINETIC TOTAL TEMP POTENTIAL TOTAL3 TEMPAVG PRESSURE GPRESSURE VOLUME PRESSAVG GPRESSAVG
ENERGY: 0 0.0000 0.0000 0.0000 0.0000 -13769.9649 2427.4075 0.0000 0.0000 1718.8442 -9623.7132 294.2047 -11342.5574 -9623.3598 294.2047 476.4692 515.1621 44352.5455 476.4692 515.1621
ENERGY: 100000 0.0000 0.0000 0.0000 0.0000 -14185.5429 2322.2809 0.0000 0.0000 178.8103 -11684.4516 30.6059 -11863.2620 -11683.9079 30.8646 -1260.0528 -1192.2204 28726.9752 4.7650 4.8125
TCL: Running 100000 steps at 60 kelvin.
TCL: Setting parameter langevinTemp to 60
TCL: Running for 100000 steps
ETITLE: TS BOND ANGLE DIHED IMPRP ELECT VDW BOUNDARY MISC KINETIC TOTAL TEMP POTENTIAL TOTAL3 TEMPAVG PRESSURE GPRESSURE VOLUME PRESSAVG GPRESSAVG
ENERGY: 100000 0.0000 0.0000 0.0000 0.0000 -14185.5429 2322.2809 0.0000 0.0000 178.7226 -11684.5393 30.5909 -11863.2620 -11684.1421 30.5909 -1237.7197 -1192.3159 28726.9752 -1237.7197 -1192.3159
ENERGY: 200000 0.0000 0.0000 0.0000 0.0000 -14240.9571 2426.5572 0.0000 0.0000 344.8395 -11469.5605 59.0242 -11814.3999 -11468.5683 59.9953 -50.4508 -22.3765 28368.7260 3.7200 3.6810
TCL: Running 100000 steps at 90 kelvin.
TCL: Setting parameter langevinTemp to 90
TCL: Running for 100000 steps
ETITLE: TS BOND ANGLE DIHED IMPRP ELECT VDW BOUNDARY MISC KINETIC TOTAL TEMP POTENTIAL TOTAL3 TEMPAVG PRESSURE GPRESSURE VOLUME PRESSAVG GPRESSAVG
ENERGY: 200000 0.0000 0.0000 0.0000 0.0000 -14240.9571 2426.5572 0.0000 0.0000 344.6681 -11469.7318 58.9949 -11814.3999 -11468.8844 58.9949 -64.7513 -22.4351 28368.7260 -64.7513 -22.4351
ENERGY: 300000 0.0000 0.0000 0.0000 0.0000 -14143.2004 2433.5534 0.0000 0.0000 520.7482 -11188.8988 89.1335 -11709.6470 -11187.7400 89.7706 352.8546 392.7827 28516.2137 3.4524 3.3588
TCL: Running 100000 steps at 120 kelvin.
TCL: Setting parameter langevinTemp to 120
TCL: Running for 100000 steps
ETITLE: TS BOND ANGLE DIHED IMPRP ELECT VDW BOUNDARY MISC KINETIC TOTAL TEMP POTENTIAL TOTAL3 TEMPAVG PRESSURE GPRESSURE VOLUME PRESSAVG GPRESSAVG
ENERGY: 300000 0.0000 0.0000 0.0000 0.0000 -14143.2004 2433.5534 0.0000 0.0000 520.4846 -11189.1624 89.0884 -11709.6470 -11188.3675 89.0884 340.4093 392.7666 28516.2137 340.4093 392.7666
ENERGY: 400000 0.0000 0.0000 0.0000 0.0000 -13873.5124 2306.4564 0.0000 0.0000 737.9566 -10829.0994 126.3118 -11567.0560 -10827.3471 119.8255 -179.1513 -119.2520 28766.3494 4.7062 4.7581
TCL: Running 100000 steps at 150 kelvin.
TCL: Setting parameter langevinTemp to 150
TCL: Running for 100000 steps
ETITLE: TS BOND ANGLE DIHED IMPRP ELECT VDW BOUNDARY MISC KINETIC TOTAL TEMP POTENTIAL TOTAL3 TEMPAVG PRESSURE GPRESSURE VOLUME PRESSAVG GPRESSAVG
ENERGY: 400000 0.0000 0.0000 0.0000 0.0000 -13873.5124 2306.4564 0.0000 0.0000 737.6069 -10829.4491 126.2519 -11567.0560 -10827.7676 126.2519 -173.2277 -118.8818 28766.3494 -173.2277 -118.8818
ENERGY: 500000 0.0000 0.0000 0.0000 0.0000 -13660.6971 2253.6185 0.0000 0.0000 856.1772 -10550.9014 146.5469 -11407.0786 -10548.9799 149.8192 -226.8808 -124.0950 28908.6111 3.7212 3.7544
TCL: Running 100000 steps at 180 kelvin.
TCL: Setting parameter langevinTemp to 180
TCL: Running for 100000 steps
ETITLE: TS BOND ANGLE DIHED IMPRP ELECT VDW BOUNDARY MISC KINETIC TOTAL TEMP POTENTIAL TOTAL3 TEMPAVG PRESSURE GPRESSURE VOLUME PRESSAVG GPRESSAVG
ENERGY: 500000 0.0000 0.0000 0.0000 0.0000 -13660.6971 2253.6185 0.0000 0.0000 855.7453 -10551.3333 146.4730 -11407.0786 -10549.6748 146.4730 -186.5270 -124.2608 28908.6111 -186.5270 -124.2608
ENERGY: 600000 0.0000 0.0000 0.0000 0.0000 -13230.6479 2133.5215 0.0000 0.0000 1053.7421 -10043.3843 180.3630 -11097.1264 -10039.9818 180.0427 184.5075 235.5995 28789.3088 5.2026 5.0854
TCL: Running 100000 steps at 210 kelvin.
TCL: Setting parameter langevinTemp to 210
TCL: Running for 100000 steps
ETITLE: TS BOND ANGLE DIHED IMPRP ELECT VDW BOUNDARY MISC KINETIC TOTAL TEMP POTENTIAL TOTAL3 TEMPAVG PRESSURE GPRESSURE VOLUME PRESSAVG GPRESSAVG
ENERGY: 600000 0.0000 0.0000 0.0000 0.0000 -13230.6479 2133.5215 0.0000 0.0000 1053.2325 -10043.8939 180.2757 -11097.1264 -10042.2280 180.2757 184.3382 236.9540 28789.3088 184.3382 236.9540
ENERGY: 700000 0.0000 0.0000 0.0000 0.0000 -12411.9656 1756.9057 0.0000 0.0000 1266.3019 -9388.7580 216.7456 -10655.0599 -9384.7683 209.8975 -1124.3155 -1123.8940 28930.8425 4.8520 4.9427
TCL: Running 100000 steps at 240 kelvin.
TCL: Setting parameter langevinTemp to 240
TCL: Running for 100000 steps
ETITLE: TS BOND ANGLE DIHED IMPRP ELECT VDW BOUNDARY MISC KINETIC TOTAL TEMP POTENTIAL TOTAL3 TEMPAVG PRESSURE GPRESSURE VOLUME PRESSAVG GPRESSAVG
ENERGY: 700000 0.0000 0.0000 0.0000 0.0000 -12411.9656 1756.9057 0.0000 0.0000 1265.6983 -9389.3616 216.6423 -10655.0599 -9386.6071 216.6423 -1202.5707 -1124.2568 28930.8425 -1202.5707 -1124.2568
ENERGY: 800000 0.0000 0.0000 0.0000 0.0000 -11875.9839 1695.6365 0.0000 0.0000 1369.0561 -8811.2913 234.3335 -10180.3474 -8808.9082 239.9567 -228.5561 -119.3312 29161.0606 5.5255 5.5211
TCL: Running 100000 steps at 270 kelvin.
TCL: Setting parameter langevinTemp to 270
TCL: Running for 100000 steps
ETITLE: TS BOND ANGLE DIHED IMPRP ELECT VDW BOUNDARY MISC KINETIC TOTAL TEMP POTENTIAL TOTAL3 TEMPAVG PRESSURE GPRESSURE VOLUME PRESSAVG GPRESSAVG
ENERGY: 800000 0.0000 0.0000 0.0000 0.0000 -11875.9839 1695.6365 0.0000 0.0000 1368.3542 -8811.9932 234.2133 -10180.3474 -8809.6159 234.2133 -175.0130 -118.5757 29161.0606 -175.0130 -118.5757
ENERGY: 900000 0.0000 0.0000 0.0000 0.0000 -11254.3536 1541.0169 0.0000 0.0000 1594.6230 -8118.7137 272.9425 -9713.3368 -8115.2904 270.1821 -111.3317 6.2650 29993.0749 2.6611 2.5062
TCL: Running 1000000 steps at 300 kelvin.
TCL: Setting parameter langevinTemp to 300
TCL: Running for 1000000 steps
ETITLE: TS BOND ANGLE DIHED IMPRP ELECT VDW BOUNDARY MISC KINETIC TOTAL TEMP POTENTIAL TOTAL3 TEMPAVG PRESSURE GPRESSURE VOLUME PRESSAVG GPRESSAVG
ENERGY: 900000 0.0000 0.0000 0.0000 0.0000 -11254.3536 1541.0169 0.0000 0.0000 1593.8555 -8119.4813 272.8111 -9713.3368 -8116.9398 272.8111 -87.2660 6.7830 29993.0749 -87.2660 6.7830
ENERGY: 1100000 0.0000 0.0000 0.0000 0.0000 -10854.0708 1480.7603 0.0000 0.0000 1767.6833 -7605.6272 302.5642 -9373.3105 -7599.9876 299.3250 502.9907 478.5455 30261.9841 3.1680 2.9701
ENERGY: 1300000 0.0000 0.0000 0.0000 0.0000 -10610.1028 1373.4928 0.0000 0.0000 1746.6729 -7489.9372 298.9680 -9236.6101 -7486.8080 300.5534 -319.8901 -297.2043 30780.4426 3.5691 3.6230
ENERGY: 1500000 0.0000 0.0000 0.0000 0.0000 -10856.5457 1450.6112 0.0000 0.0000 1743.4786 -7662.4558 298.4212 -9405.9345 -7658.4960 300.3149 63.2447 192.6510 30242.4360 3.6863 3.6654
ENERGY: 1700000 0.0000 0.0000 0.0000 0.0000 -10911.3159 1533.9098 0.0000 0.0000 1827.3378 -7550.0683 312.7749 -9377.4061 -7549.1260 298.9997 832.0823 945.1530 30278.2489 4.1693 4.0432
ENERGY: 1900000 0.0000 0.0000 0.0000 0.0000 -10832.9525 1460.8075 0.0000 0.0000 1743.0127 -7629.1323 298.3415 -9372.1450 -7625.4786 300.3844 354.0272 432.4996 30034.9973 4.5453 4.6678
TCL: Exiting due to exit command.
