Info: SIMULATION PARAMETERS:
Info: TIMESTEP               2
Info: NUMBER OF STEPS        0
Info: STEPS PER CYCLE        10
Info: PERIODIC CELL BASIS 1  36.592 0 0
Info: PERIODIC CELL BASIS 2  0 34.26 0
Info: PERIODIC CELL BASIS 3  0 0 34.471
Info: PERIODIC CELL CENTER   0 0 0
Info: WRAPPING WATERS AROUND PERIODIC BOUNDARIES ON OUTPUT.
Info: WRAPPING ALL CLUSTERS AROUND PERIODIC BOUNDARIES ON OUTPUT.
Info: FIRST LDB TIMESTEP     50
Info: LAST LDB TIMESTEP     -1
Info: HOM BACKGROUND SCALING 1
Info: PME BACKGROUND SCALING 1
Info: MIN ATOMS PER PATCH    40
Info: EMPTY PATCH LOAD       40 ATOMS
Info: INITIAL TEMPERATURE    300
Info: CENTER OF MASS MOVING INITIALLY? NO
Info: DIELECTRIC             1
Info: EXCLUDE                SCALED ONE-FOUR
Info: 1-4 ELECTROSTATICS SCALED BY 0.833333
Info: MODIFIED 1-4 VDW PARAMETERS WILL BE USED
Info: DCD FILENAME           mobley_994483_equil.dcd
Info: DCD FREQUENCY          100000
Info: DCD FIRST STEP         100000
Info: DCD FILE WILL CONTAIN UNIT CELL DATA
Info: XST FILENAME           mobley_994483_equil.xst
Info: XST FREQUENCY          100000
Info: NO VELOCITY DCD OUTPUT
Info: NO FORCE DCD OUTPUT
Info: OUTPUT FILENAME        mobley_994483_equil
Info: BINARY OUTPUT FILES WILL BE USED
Info: RESTART FILENAME       mobley_994483_equil.restart
Info: RESTART FREQUENCY      100000
Info: BINARY RESTART FILES WILL BE USED
Info: CUTOFF                 9
Info: PAIRLIST DISTANCE      11
Info: PAIRLIST SHRINK RATE   0.01
Info: PAIRLIST GROW RATE     0.01
Info: PAIRLIST TRIGGER       0.3
Info: PAIRLISTS PER CYCLE    2
Info: PAIRLISTS ENABLED
Info: MARGIN                 8
Info: HYDROGEN GROUP CUTOFF  2.5
Info: PATCH DIMENSION        21.5
Info: ENERGY OUTPUT STEPS    100000
Info: ENERGY EVALUATION STEPS    100000
Info: OUTPUT ENERGY PRECISION 4
Info: CROSSTERM ENERGY INCLUDED IN DIHEDRAL
Info: TIMING OUTPUT STEPS    1000000
Info: PRESSURE OUTPUT STEPS  100000
Info: FIXED ATOMS ACTIVE
Info: LANGEVIN DYNAMICS ACTIVE
Info: LANGEVIN TEMPERATURE   30
Info: LANGEVIN USING BBK INTEGRATOR
Info: LANGEVIN DAMPING COEFFICIENT IS 1 INVERSE PS
Info: LANGEVIN DYNAMICS APPLIED TO HYDROGENS
Info: LANGEVIN PISTON PRESSURE CONTROL ACTIVE
Info:        TARGET PRESSURE IS 1.01325 BAR
Info:     OSCILLATION PERIOD IS 50 FS
Info:             DECAY TIME IS 25 FS
Info:     PISTON TEMPERATURE IS 300 K
Info:       PRESSURE CONTROL IS GROUP-BASED
Info:    INITIAL STRAIN RATE IS 0 0 0
Info:       CELL FLUCTUATION IS ISOTROPIC
Info: PARTICLE MESH EWALD (PME) ACTIVE
Info: PME TOLERANCE               1e-06
Info: PME EWALD COEFFICIENT       0.348832
Info: PME INTERPOLATION ORDER     4
Info: PME GRID DIMENSIONS         40 36 36
Info: PME MAXIMUM GRID SPACING    1
Info: FULL ELECTROSTATIC EVALUATION FREQUENCY      2
Info: USING VERLET I (r-RESPA) MTS SCHEME.
Info: C1 SPLITTING OF LONG RANGE ELECTROSTATICS
Info: PLACING ATOMS IN PATCHES BY HYDROGEN GROUPS
Info: RIGID BONDS TO HYDROGEN : ALL
Info:         ERROR TOLERANCE : 1e-08
Info:          MAX ITERATIONS : 100
Info: RIGID WATER USING SETTLE ALGORITHM
Info: RANDOM NUMBER SEED     1743682347
Info: USE HYDROGEN BONDS?    NO
Info: Using AMBER format force field!
Info: AMBER PARM FILE        mobley_994483.prmtop
Info: COORDINATE PDB         mobley_994483.pdb
Info: Exclusions will be read from PARM file!
Info: SCNB (VDW SCALING)     2
Info: USING ARITHMETIC MEAN TO COMBINE L-J SIGMA PARAMETERS
Info: BINARY COORDINATES     mobley_994483_min.coor
Info: SUMMARY OF PARAMETERS:
Info: 6 BONDS
Info: 6 ANGLES
Info:   6 HARMONIC
Info:   0 COSINE-BASED
Info: 3 DIHEDRAL
Info: 0 IMPROPER
Info: 0 CROSSTERM
Info: 0 VDW
Info: 21 VDW_PAIRS
Info: 0 NBTHOLE_PAIRS
Info: STRUCTURE SUMMARY:
Info: 2939 ATOMS
Info: 2938 BONDS
Info: 12 ANGLES
Info: 12 DIHEDRALS
Info: 0 IMPROPERS
Info: 0 CROSSTERMS
Info: 2959 EXCLUSIONS
Info: 8 FIXED ATOMS
Info: 2936 RIGID BONDS
Info: 5 RIGID BONDS BETWEEN FIXED ATOMS
Info: 5862 DEGREES OF FREEDOM
Info: 980 HYDROGEN GROUPS
Info: 4 ATOMS IN LARGEST HYDROGEN GROUP
Info: 980 MIGRATION GROUPS
Info: 4 ATOMS IN LARGEST MIGRATION GROUP
Info: 3 HYDROGEN GROUPS WITH ALL ATOMS FIXED
Info: TOTAL MASS = 17710.6 amu
Info: TOTAL CHARGE = 4.19095e-09 e
Info: MASS DENSITY = 0.680558 g/cm^3
Info: ATOM DENSITY = 0.0680099 atoms/A^3
Info: ADDED 0 IMPLICIT EXCLUSIONS
Info: NONBONDED TABLE R-SQUARED SPACING: 0.0625
Info: NONBONDED TABLE SIZE: 705 POINTS
Info: REMOVING COM VELOCITY 0.142128 -0.164143 -0.0520123
TCL: Running for 100000 steps
ETITLE: TS BOND ANGLE DIHED IMPRP ELECT VDW BOUNDARY MISC KINETIC TOTAL TEMP POTENTIAL TOTAL3 TEMPAVG PRESSURE GPRESSURE VOLUME PRESSAVG GPRESSAVG
ENERGY: 0 0.0000 0.0000 0.0000 0.0000 -13610.1792 2389.6314 0.0000 0.0000 1746.1822 -9474.3656 299.8017 -11220.5478 -9474.0153 299.8017 366.2343 401.0318 43214.2906 366.2343 401.0318
ENERGY: 100000 0.0000 0.0000 0.0000 0.0000 -14075.6790 2409.3333 0.0000 0.0000 175.1217 -11491.2240 30.0666 -11666.3457 -11490.6744 30.9050 -576.6938 -514.8861 29377.0967 3.4538 3.4813
TCL: Running 100000 steps at 60 kelvin.
TCL: Setting parameter langevinTemp to 60
TCL: Running for 100000 steps
ETITLE: TS BOND ANGLE DIHED IMPRP ELECT VDW BOUNDARY MISC KINETIC TOTAL TEMP POTENTIAL TOTAL3 TEMPAVG PRESSURE GPRESSURE VOLUME PRESSAVG GPRESSAVG
ENERGY: 100000 0.0000 0.0000 0.0000 0.0000 -14075.6790 2409.3333 0.0000 0.0000 175.0363 -11491.3094 30.0520 -11666.3458 -11490.9274 30.0520 -583.6665 -514.9020 29377.0967 -583.6665 -514.9020
ENERGY: 200000 0.0000 0.0000 0.0000 0.0000 -14209.9692 2581.8690 0.0000 0.0000 350.5583 -11277.5419 60.1873 -11628.1002 -11276.7721 59.9477 1150.1636 1217.5313 28924.0448 1.9991 1.9657
TCL: Running 100000 steps at 90 kelvin.
TCL: Setting parameter langevinTemp to 90
TCL: Running for 100000 steps
ETITLE: TS BOND ANGLE DIHED IMPRP ELECT VDW BOUNDARY MISC KINETIC TOTAL TEMP POTENTIAL TOTAL3 TEMPAVG PRESSURE GPRESSURE VOLUME PRESSAVG GPRESSAVG
ENERGY: 200000 0.0000 0.0000 0.0000 0.0000 -14209.9692 2581.8690 0.0000 0.0000 350.3834 -11277.7168 60.1573 -11628.1002 -11277.1756 60.1573 1157.5108 1217.4928 28924.0448 1157.5108 1217.4928
ENERGY: 300000 0.0000 0.0000 0.0000 0.0000 -14028.7917 2482.0700 0.0000 0.0000 526.0562 -11020.6656 90.3185 -11546.7218 -11019.4674 89.8014 768.8088 803.9898 28506.6665 2.9062 2.8875
TCL: Running 100000 steps at 120 kelvin.
TCL: Setting parameter langevinTemp to 120
TCL: Running for 100000 steps
ETITLE: TS BOND ANGLE DIHED IMPRP ELECT VDW BOUNDARY MISC KINETIC TOTAL TEMP POTENTIAL TOTAL3 TEMPAVG PRESSURE GPRESSURE VOLUME PRESSAVG GPRESSAVG
ENERGY: 300000 0.0000 0.0000 0.0000 0.0000 -14028.7917 2482.0700 0.0000 0.0000 525.7835 -11020.9383 90.2717 -11546.7218 -11020.0047 90.2717 747.9171 804.3054 28506.6665 747.9171 804.3054
ENERGY: 400000 0.0000 0.0000 0.0000 0.0000 -13752.5388 2310.2057 0.0000 0.0000 701.3240 -10741.0092 120.4102 -11442.3332 -10739.2517 119.9863 -82.0128 -20.3601 28351.4606 5.3336 5.3618
TCL: Running 100000 steps at 150 kelvin.
TCL: Setting parameter langevinTemp to 150
TCL: Running for 100000 steps
ETITLE: TS BOND ANGLE DIHED IMPRP ELECT VDW BOUNDARY MISC KINETIC TOTAL TEMP POTENTIAL TOTAL3 TEMPAVG PRESSURE GPRESSURE VOLUME PRESSAVG GPRESSAVG
ENERGY: 400000 0.0000 0.0000 0.0000 0.0000 -13752.5388 2310.2057 0.0000 0.0000 700.9787 -10741.3545 120.3509 -11442.3332 -10739.8427 120.3509 -65.7336 -20.8176 28351.4606 -65.7336 -20.8176
ENERGY: 500000 0.0000 0.0000 0.0000 0.0000 -13513.0044 2245.5016 0.0000 0.0000 864.9548 -10402.5481 148.5039 -11267.5029 -10400.9706 150.3095 91.3482 125.9282 28436.4986 3.8209 3.6813
TCL: Running 100000 steps at 180 kelvin.
TCL: Setting parameter langevinTemp to 180
TCL: Running for 100000 steps
ETITLE: TS BOND ANGLE DIHED IMPRP ELECT VDW BOUNDARY MISC KINETIC TOTAL TEMP POTENTIAL TOTAL3 TEMPAVG PRESSURE GPRESSURE VOLUME PRESSAVG GPRESSAVG
ENERGY: 500000 0.0000 0.0000 0.0000 0.0000 -13513.0044 2245.5016 0.0000 0.0000 864.5307 -10402.9722 148.4311 -11267.5029 -10401.0411 148.4311 67.7029 124.7546 28436.4986 67.7029 124.7546
ENERGY: 600000 0.0000 0.0000 0.0000 0.0000 -13229.2983 2177.0640 0.0000 0.0000 1050.0100 -10002.2244 180.2760 -11052.2344 -9999.3633 180.1343 30.6677 110.8609 28841.5882 4.2460 4.2486
TCL: Running 100000 steps at 210 kelvin.
TCL: Setting parameter langevinTemp to 210
TCL: Running for 100000 steps
ETITLE: TS BOND ANGLE DIHED IMPRP ELECT VDW BOUNDARY MISC KINETIC TOTAL TEMP POTENTIAL TOTAL3 TEMPAVG PRESSURE GPRESSURE VOLUME PRESSAVG GPRESSAVG
ENERGY: 600000 0.0000 0.0000 0.0000 0.0000 -13229.2983 2177.0640 0.0000 0.0000 1049.4996 -10002.7348 180.1884 -11052.2344 -10000.6644 180.1884 47.4821 110.8937 28841.5882 47.4821 110.8937
ENERGY: 700000 0.0000 0.0000 0.0000 0.0000 -12326.5336 1860.6981 0.0000 0.0000 1235.1806 -9230.6548 212.0680 -10465.8355 -9227.6086 209.6964 -163.7363 -97.6925 28671.1026 3.1101 3.1249
TCL: Running 100000 steps at 240 kelvin.
TCL: Setting parameter langevinTemp to 240
TCL: Running for 100000 steps
ETITLE: TS BOND ANGLE DIHED IMPRP ELECT VDW BOUNDARY MISC KINETIC TOTAL TEMP POTENTIAL TOTAL3 TEMPAVG PRESSURE GPRESSURE VOLUME PRESSAVG GPRESSAVG
ENERGY: 700000 0.0000 0.0000 0.0000 0.0000 -12326.5336 1860.6981 0.0000 0.0000 1234.5782 -9231.2573 211.9645 -10465.8355 -9229.5953 211.9645 -183.3193 -98.2202 28671.1026 -183.3193 -98.2202
ENERGY: 800000 0.0000 0.0000 0.0000 0.0000 -11857.6256 1735.4036 0.0000 0.0000 1407.6534 -8714.5685 241.6798 -10122.2220 -8712.3532 239.9840 -144.2902 -85.6398 29207.9708 3.6960 3.6528
TCL: Running 100000 steps at 270 kelvin.
TCL: Setting parameter langevinTemp to 270
TCL: Running for 100000 steps
ETITLE: TS BOND ANGLE DIHED IMPRP ELECT VDW BOUNDARY MISC KINETIC TOTAL TEMP POTENTIAL TOTAL3 TEMPAVG PRESSURE GPRESSURE VOLUME PRESSAVG GPRESSAVG
ENERGY: 800000 0.0000 0.0000 0.0000 0.0000 -11857.6256 1735.4036 0.0000 0.0000 1406.9586 -8715.2634 241.5605 -10122.2220 -8712.4537 241.5605 -161.2834 -87.4130 29207.9708 -161.2834 -87.4130
ENERGY: 900000 0.0000 0.0000 0.0000 0.0000 -11345.2304 1668.6668 0.0000 0.0000 1561.4636 -8115.1000 268.0874 -9676.5636 -8114.0701 269.7558 1026.6304 1083.0817 29004.1786 4.3882 4.2456
TCL: Running 1000000 steps at 300 kelvin.
TCL: Setting parameter langevinTemp to 300
TCL: Running for 1000000 steps
ETITLE: TS BOND ANGLE DIHED IMPRP ELECT VDW BOUNDARY MISC KINETIC TOTAL TEMP POTENTIAL TOTAL3 TEMPAVG PRESSURE GPRESSURE VOLUME PRESSAVG GPRESSAVG
ENERGY: 900000 0.0000 0.0000 0.0000 0.0000 -11345.2304 1668.6668 0.0000 0.0000 1560.6144 -8115.9492 267.9416 -9676.5636 -8113.6896 267.9416 989.9137 1080.6605 29004.1786 989.9137 1080.6605
ENERGY: 1100000 0.0000 0.0000 0.0000 0.0000 -10631.3825 1369.9163 0.0000 0.0000 1707.4248 -7554.0415 293.1475 -9261.4663 -7551.5748 299.7127 -717.2223 -587.9942 30449.1458 3.9427 3.8470
ENERGY: 1300000 0.0000 0.0000 0.0000 0.0000 -10690.2673 1451.8539 0.0000 0.0000 1739.9596 -7498.4538 298.7334 -9238.4134 -7494.2190 300.6441 82.8897 202.0981 30199.9112 3.7003 3.6780
ENERGY: 1500000 0.0000 0.0000 0.0000 0.0000 -10579.2770 1365.4120 0.0000 0.0000 1736.8213 -7477.0436 298.1946 -9213.8650 -7475.3306 300.2840 -711.1622 -548.3295 30636.4266 2.2838 2.0517
ENERGY: 1700000 0.0000 0.0000 0.0000 0.0000 -10734.8763 1465.4213 0.0000 0.0000 1743.8078 -7525.6472 299.3941 -9269.4550 -7523.0441 300.0935 130.4403 238.1257 30136.5219 4.0613 3.8649
ENERGY: 1900000 0.0000 0.0000 0.0000 0.0000 -10601.1610 1399.5914 0.0000 0.0000 1767.1169 -7434.4527 303.3960 -9201.5696 -7431.1639 300.0946 -94.5521 -64.1522 30443.4784 2.6983 2.9174
TCL: Exiting due to exit command.
