Info: SIMULATION PARAMETERS:
Info: TIMESTEP               2
Info: NUMBER OF STEPS        0
Info: STEPS PER CYCLE        10
Info: PERIODIC CELL BASIS 1  37.133 0 0
Info: PERIODIC CELL BASIS 2  0 34.26 0
Info: PERIODIC CELL BASIS 3  0 0 34.68
Info: PERIODIC CELL CENTER   0 0 0
Info: WRAPPING WATERS AROUND PERIODIC BOUNDARIES ON OUTPUT.
Info: WRAPPING ALL CLUSTERS AROUND PERIODIC BOUNDARIES ON OUTPUT.
Info: FIRST LDB TIMESTEP     50
Info: LAST LDB TIMESTEP     -1
Info: HOM BACKGROUND SCALING 1
Info: PME BACKGROUND SCALING 1
Info: MIN ATOMS PER PATCH    40
Info: EMPTY PATCH LOAD       40 ATOMS
Info: INITIAL TEMPERATURE    300
Info: CENTER OF MASS MOVING INITIALLY? NO
Info: DIELECTRIC             1
Info: EXCLUDE                SCALED ONE-FOUR
Info: 1-4 ELECTROSTATICS SCALED BY 0.833333
Info: MODIFIED 1-4 VDW PARAMETERS WILL BE USED
Info: DCD FILENAME           mobley_7893124_equil.dcd
Info: DCD FREQUENCY          100000
Info: DCD FIRST STEP         100000
Info: DCD FILE WILL CONTAIN UNIT CELL DATA
Info: XST FILENAME           mobley_7893124_equil.xst
Info: XST FREQUENCY          100000
Info: NO VELOCITY DCD OUTPUT
Info: NO FORCE DCD OUTPUT
Info: OUTPUT FILENAME        mobley_7893124_equil
Info: BINARY OUTPUT FILES WILL BE USED
Info: RESTART FILENAME       mobley_7893124_equil.restart
Info: RESTART FREQUENCY      100000
Info: BINARY RESTART FILES WILL BE USED
Info: CUTOFF                 9
Info: PAIRLIST DISTANCE      11
Info: PAIRLIST SHRINK RATE   0.01
Info: PAIRLIST GROW RATE     0.01
Info: PAIRLIST TRIGGER       0.3
Info: PAIRLISTS PER CYCLE    2
Info: PAIRLISTS ENABLED
Info: MARGIN                 8
Info: HYDROGEN GROUP CUTOFF  2.5
Info: PATCH DIMENSION        21.5
Info: ENERGY OUTPUT STEPS    100000
Info: ENERGY EVALUATION STEPS    100000
Info: OUTPUT ENERGY PRECISION 4
Info: CROSSTERM ENERGY INCLUDED IN DIHEDRAL
Info: TIMING OUTPUT STEPS    1000000
Info: PRESSURE OUTPUT STEPS  100000
Info: FIXED ATOMS ACTIVE
Info: LANGEVIN DYNAMICS ACTIVE
Info: LANGEVIN TEMPERATURE   30
Info: LANGEVIN USING BBK INTEGRATOR
Info: LANGEVIN DAMPING COEFFICIENT IS 1 INVERSE PS
Info: LANGEVIN DYNAMICS APPLIED TO HYDROGENS
Info: LANGEVIN PISTON PRESSURE CONTROL ACTIVE
Info:        TARGET PRESSURE IS 1.01325 BAR
Info:     OSCILLATION PERIOD IS 50 FS
Info:             DECAY TIME IS 25 FS
Info:     PISTON TEMPERATURE IS 300 K
Info:       PRESSURE CONTROL IS GROUP-BASED
Info:    INITIAL STRAIN RATE IS 0 0 0
Info:       CELL FLUCTUATION IS ISOTROPIC
Info: PARTICLE MESH EWALD (PME) ACTIVE
Info: PME TOLERANCE               1e-06
Info: PME EWALD COEFFICIENT       0.348832
Info: PME INTERPOLATION ORDER     4
Info: PME GRID DIMENSIONS         40 36 36
Info: PME MAXIMUM GRID SPACING    1
Info: FULL ELECTROSTATIC EVALUATION FREQUENCY      2
Info: USING VERLET I (r-RESPA) MTS SCHEME.
Info: C1 SPLITTING OF LONG RANGE ELECTROSTATICS
Info: PLACING ATOMS IN PATCHES BY HYDROGEN GROUPS
Info: RIGID BONDS TO HYDROGEN : ALL
Info:         ERROR TOLERANCE : 1e-08
Info:          MAX ITERATIONS : 100
Info: RIGID WATER USING SETTLE ALGORITHM
Info: RANDOM NUMBER SEED     1743765132
Info: USE HYDROGEN BONDS?    NO
Info: Using AMBER format force field!
Info: AMBER PARM FILE        mobley_7893124.prmtop
Info: COORDINATE PDB         mobley_7893124.pdb
Info: Exclusions will be read from PARM file!
Info: SCNB (VDW SCALING)     2
Info: USING ARITHMETIC MEAN TO COMBINE L-J SIGMA PARAMETERS
Info: BINARY COORDINATES     mobley_7893124_min.coor
Info: SUMMARY OF PARAMETERS:
Info: 7 BONDS
Info: 7 ANGLES
Info: 5 DIHEDRAL
Info: 0 IMPROPER
Info: 0 CROSSTERM
Info: 0 VDW
Info: 21 VDW_PAIRS
Info: 0 NBTHOLE_PAIRS
Info: STRUCTURE SUMMARY:
Info: 2937 ATOMS
Info: 2937 BONDS
Info: 42 ANGLES
Info: 63 DIHEDRALS
Info: 0 IMPROPERS
Info: 0 CROSSTERMS
Info: 3033 EXCLUSIONS
Info: 24 FIXED ATOMS
Info: 2927 RIGID BONDS
Info: 14 RIGID BONDS BETWEEN FIXED ATOMS
Info: 5826 DEGREES OF FREEDOM
Info: 981 HYDROGEN GROUPS
Info: 4 ATOMS IN LARGEST HYDROGEN GROUP
Info: 981 MIGRATION GROUPS
Info: 4 ATOMS IN LARGEST MIGRATION GROUP
Info: 10 HYDROGEN GROUPS WITH ALL ATOMS FIXED
Info: TOTAL MASS = 17627.7 amu
Info: TOTAL CHARGE = 0.000200007 e
Info: MASS DENSITY = 0.663483 g/cm^3
Info: ATOM DENSITY = 0.0665698 atoms/A^3
Info: ADDED 0 IMPLICIT EXCLUSIONS
Info: NONBONDED TABLE R-SQUARED SPACING: 0.0625
Info: NONBONDED TABLE SIZE: 705 POINTS
Info: REMOVING COM VELOCITY -0.0349658 -0.163951 0.00590468
TCL: Running for 100000 steps
ETITLE: TS BOND ANGLE DIHED IMPRP ELECT VDW BOUNDARY MISC KINETIC TOTAL TEMP POTENTIAL TOTAL3 TEMPAVG PRESSURE GPRESSURE VOLUME PRESSAVG GPRESSAVG
ENERGY: 0 0.0000 0.0000 0.0000 0.0000 -13517.3965 2359.9834 0.0000 0.0000 1737.5922 -9419.8209 300.1703 -11157.4131 -9419.5047 300.1703 220.8964 260.6742 44119.0838 220.8964 260.6742
ENERGY: 100000 0.0000 0.0000 0.0000 0.0000 -14085.2825 2478.6980 0.0000 0.0000 172.1390 -11434.4456 29.7371 -11606.5846 -11433.9316 30.8655 36.1558 101.1081 29847.2187 3.8804 3.8297
TCL: Running 100000 steps at 60 kelvin.
TCL: Setting parameter langevinTemp to 60
TCL: Running for 100000 steps
ETITLE: TS BOND ANGLE DIHED IMPRP ELECT VDW BOUNDARY MISC KINETIC TOTAL TEMP POTENTIAL TOTAL3 TEMPAVG PRESSURE GPRESSURE VOLUME PRESSAVG GPRESSAVG
ENERGY: 100000 0.0000 0.0000 0.0000 0.0000 -14085.2825 2478.6980 0.0000 0.0000 172.0525 -11434.5321 29.7222 -11606.5846 -11434.1566 29.7222 55.3794 101.2920 29847.2187 55.3794 101.2920
ENERGY: 200000 0.0000 0.0000 0.0000 0.0000 -14187.2249 2590.2043 0.0000 0.0000 341.7665 -11255.2541 59.0404 -11597.0207 -11254.6158 60.0644 1219.3937 1273.0657 29106.6991 3.9732 4.0079
TCL: Running 100000 steps at 90 kelvin.
TCL: Setting parameter langevinTemp to 90
TCL: Running for 100000 steps
ETITLE: TS BOND ANGLE DIHED IMPRP ELECT VDW BOUNDARY MISC KINETIC TOTAL TEMP POTENTIAL TOTAL3 TEMPAVG PRESSURE GPRESSURE VOLUME PRESSAVG GPRESSAVG
ENERGY: 200000 0.0000 0.0000 0.0000 0.0000 -14187.2249 2590.2043 0.0000 0.0000 341.5892 -11255.4315 59.0098 -11597.0207 -11254.7774 59.0098 1210.3809 1272.4239 29106.6991 1210.3809 1272.4239
ENERGY: 300000 0.0000 0.0000 0.0000 0.0000 -13851.6199 2374.4791 0.0000 0.0000 536.1680 -10940.9729 92.6234 -11477.1409 -10939.7540 90.0844 -101.7637 -32.9734 29286.3621 3.4942 3.5635
TCL: Running 100000 steps at 120 kelvin.
TCL: Setting parameter langevinTemp to 120
TCL: Running for 100000 steps
ETITLE: TS BOND ANGLE DIHED IMPRP ELECT VDW BOUNDARY MISC KINETIC TOTAL TEMP POTENTIAL TOTAL3 TEMPAVG PRESSURE GPRESSURE VOLUME PRESSAVG GPRESSAVG
ENERGY: 300000 0.0000 0.0000 0.0000 0.0000 -13851.6199 2374.4791 0.0000 0.0000 535.9083 -10941.2325 92.5786 -11477.1409 -10940.1313 92.5786 -90.1829 -33.2612 29286.3621 -90.1829 -33.2612
ENERGY: 400000 0.0000 0.0000 0.0000 0.0000 -13689.6155 2309.3642 0.0000 0.0000 672.4529 -10707.7984 116.1667 -11380.2513 -10705.7674 119.9152 38.8402 48.3664 28730.7763 2.5182 2.5609
TCL: Running 100000 steps at 150 kelvin.
TCL: Setting parameter langevinTemp to 150
TCL: Running for 100000 steps
ETITLE: TS BOND ANGLE DIHED IMPRP ELECT VDW BOUNDARY MISC KINETIC TOTAL TEMP POTENTIAL TOTAL3 TEMPAVG PRESSURE GPRESSURE VOLUME PRESSAVG GPRESSAVG
ENERGY: 400000 0.0000 0.0000 0.0000 0.0000 -13689.6155 2309.3642 0.0000 0.0000 672.0978 -10708.1536 116.1054 -11380.2513 -10706.7174 116.1054 1.2759 49.1227 28730.7763 1.2759 49.1227
ENERGY: 500000 0.0000 0.0000 0.0000 0.0000 -13282.3712 2113.6157 0.0000 0.0000 880.2995 -10288.4560 152.0724 -11168.7555 -10286.8985 150.1546 -890.6613 -759.6594 28794.7352 3.4036 3.3662
TCL: Running 100000 steps at 180 kelvin.
TCL: Setting parameter langevinTemp to 180
TCL: Running for 100000 steps
ETITLE: TS BOND ANGLE DIHED IMPRP ELECT VDW BOUNDARY MISC KINETIC TOTAL TEMP POTENTIAL TOTAL3 TEMPAVG PRESSURE GPRESSURE VOLUME PRESSAVG GPRESSAVG
ENERGY: 500000 0.0000 0.0000 0.0000 0.0000 -13282.3712 2113.6157 0.0000 0.0000 879.8740 -10288.8815 151.9989 -11168.7555 -10287.2958 151.9989 -816.4004 -758.7117 28794.7352 -816.4004 -758.7117
ENERGY: 600000 0.0000 0.0000 0.0000 0.0000 -13009.7189 2100.6981 0.0000 0.0000 1049.3656 -9859.6551 181.2787 -10909.0208 -9857.4276 179.9461 81.2967 162.7891 28659.8174 3.1298 3.0850
TCL: Running 100000 steps at 210 kelvin.
TCL: Setting parameter langevinTemp to 210
TCL: Running for 100000 steps
ETITLE: TS BOND ANGLE DIHED IMPRP ELECT VDW BOUNDARY MISC KINETIC TOTAL TEMP POTENTIAL TOTAL3 TEMPAVG PRESSURE GPRESSURE VOLUME PRESSAVG GPRESSAVG
ENERGY: 600000 0.0000 0.0000 0.0000 0.0000 -13009.7189 2100.6981 0.0000 0.0000 1048.8420 -9860.1788 181.1882 -10909.0208 -9858.1459 181.1882 99.2559 162.2018 28659.8174 99.2559 162.2018
ENERGY: 700000 0.0000 0.0000 0.0000 0.0000 -12330.3972 1913.3355 0.0000 0.0000 1226.3945 -9190.6672 211.8605 -10417.0617 -9186.9393 210.2167 509.2934 609.4306 28406.1849 3.8742 3.8513
TCL: Running 100000 steps at 240 kelvin.
TCL: Setting parameter langevinTemp to 240
TCL: Running for 100000 steps
ETITLE: TS BOND ANGLE DIHED IMPRP ELECT VDW BOUNDARY MISC KINETIC TOTAL TEMP POTENTIAL TOTAL3 TEMPAVG PRESSURE GPRESSURE VOLUME PRESSAVG GPRESSAVG
ENERGY: 700000 0.0000 0.0000 0.0000 0.0000 -12330.3972 1913.3355 0.0000 0.0000 1225.8107 -9191.2510 211.7597 -10417.0617 -9189.5256 211.7597 533.0374 610.0153 28406.1849 533.0374 610.0153
ENERGY: 800000 0.0000 0.0000 0.0000 0.0000 -11763.0117 1747.9186 0.0000 0.0000 1367.0705 -8648.0225 236.1624 -10015.0931 -8644.7232 239.7248 418.9201 536.9445 28896.7878 4.8211 4.6684
TCL: Running 100000 steps at 270 kelvin.
TCL: Setting parameter langevinTemp to 270
TCL: Running for 100000 steps
ETITLE: TS BOND ANGLE DIHED IMPRP ELECT VDW BOUNDARY MISC KINETIC TOTAL TEMP POTENTIAL TOTAL3 TEMPAVG PRESSURE GPRESSURE VOLUME PRESSAVG GPRESSAVG
ENERGY: 800000 0.0000 0.0000 0.0000 0.0000 -11763.0117 1747.9186 0.0000 0.0000 1366.3873 -8648.7058 236.0444 -10015.0931 -8646.8190 236.0444 464.6204 538.4612 28896.7878 464.6204 538.4612
ENERGY: 900000 0.0000 0.0000 0.0000 0.0000 -11086.6915 1538.8141 0.0000 0.0000 1605.8786 -7941.9988 277.4167 -9547.8774 -7940.8416 269.5201 88.0812 224.6286 29408.9628 4.2636 4.1381
TCL: Running 1000000 steps at 300 kelvin.
TCL: Setting parameter langevinTemp to 300
TCL: Running for 1000000 steps
ETITLE: TS BOND ANGLE DIHED IMPRP ELECT VDW BOUNDARY MISC KINETIC TOTAL TEMP POTENTIAL TOTAL3 TEMPAVG PRESSURE GPRESSURE VOLUME PRESSAVG GPRESSAVG
ENERGY: 900000 0.0000 0.0000 0.0000 0.0000 -11086.6915 1538.8141 0.0000 0.0000 1605.0728 -7942.8046 277.2775 -9547.8774 -7940.0719 277.2775 138.6910 222.3305 29408.9628 138.6910 222.3305
ENERGY: 1100000 0.0000 0.0000 0.0000 0.0000 -10615.2071 1434.1440 0.0000 0.0000 1760.3967 -7420.6664 304.1098 -9181.0631 -7415.4502 300.2387 -61.3777 74.6775 30743.1158 2.4350 2.4372
ENERGY: 1300000 0.0000 0.0000 0.0000 0.0000 -10568.0310 1375.6317 0.0000 0.0000 1770.7685 -7421.6308 305.9016 -9192.3993 -7417.7500 300.2270 -214.9665 -120.3924 30043.1452 3.4904 3.3884
ENERGY: 1500000 0.0000 0.0000 0.0000 0.0000 -10589.9705 1396.0548 0.0000 0.0000 1758.4830 -7435.4327 303.7792 -9193.9157 -7431.0996 300.4126 211.5972 309.0546 29615.3149 3.9423 3.9683
ENERGY: 1700000 0.0000 0.0000 0.0000 0.0000 -10535.3053 1312.7242 0.0000 0.0000 1743.4549 -7479.1262 301.1831 -9222.5811 -7474.6753 299.7142 -746.8536 -691.0659 30164.3049 2.8039 2.9137
ENERGY: 1900000 0.0000 0.0000 0.0000 0.0000 -10660.4303 1417.5940 0.0000 0.0000 1775.1428 -7467.6935 306.6572 -9242.8364 -7463.4590 300.1209 -233.8736 -183.6862 30426.3487 2.5541 2.3609
TCL: Exiting due to exit command.
