Info: SIMULATION PARAMETERS:
Info: TIMESTEP               2
Info: NUMBER OF STEPS        0
Info: STEPS PER CYCLE        10
Info: PERIODIC CELL BASIS 1  36.592 0 0
Info: PERIODIC CELL BASIS 2  0 35.411 0
Info: PERIODIC CELL BASIS 3  0 0 33.876
Info: PERIODIC CELL CENTER   0 0 0
Info: WRAPPING WATERS AROUND PERIODIC BOUNDARIES ON OUTPUT.
Info: WRAPPING ALL CLUSTERS AROUND PERIODIC BOUNDARIES ON OUTPUT.
Info: FIRST LDB TIMESTEP     50
Info: LAST LDB TIMESTEP     -1
Info: HOM BACKGROUND SCALING 1
Info: PME BACKGROUND SCALING 1
Info: MIN ATOMS PER PATCH    40
Info: EMPTY PATCH LOAD       40 ATOMS
Info: INITIAL TEMPERATURE    300
Info: CENTER OF MASS MOVING INITIALLY? NO
Info: DIELECTRIC             1
Info: EXCLUDE                SCALED ONE-FOUR
Info: 1-4 ELECTROSTATICS SCALED BY 0.833333
Info: MODIFIED 1-4 VDW PARAMETERS WILL BE USED
Info: DCD FILENAME           mobley_778352_equil.dcd
Info: DCD FREQUENCY          100000
Info: DCD FIRST STEP         100000
Info: DCD FILE WILL CONTAIN UNIT CELL DATA
Info: XST FILENAME           mobley_778352_equil.xst
Info: XST FREQUENCY          100000
Info: NO VELOCITY DCD OUTPUT
Info: NO FORCE DCD OUTPUT
Info: OUTPUT FILENAME        mobley_778352_equil
Info: BINARY OUTPUT FILES WILL BE USED
Info: RESTART FILENAME       mobley_778352_equil.restart
Info: RESTART FREQUENCY      100000
Info: BINARY RESTART FILES WILL BE USED
Info: CUTOFF                 9
Info: PAIRLIST DISTANCE      11
Info: PAIRLIST SHRINK RATE   0.01
Info: PAIRLIST GROW RATE     0.01
Info: PAIRLIST TRIGGER       0.3
Info: PAIRLISTS PER CYCLE    2
Info: PAIRLISTS ENABLED
Info: MARGIN                 8
Info: HYDROGEN GROUP CUTOFF  2.5
Info: PATCH DIMENSION        21.5
Info: ENERGY OUTPUT STEPS    100000
Info: ENERGY EVALUATION STEPS    100000
Info: OUTPUT ENERGY PRECISION 4
Info: CROSSTERM ENERGY INCLUDED IN DIHEDRAL
Info: TIMING OUTPUT STEPS    1000000
Info: PRESSURE OUTPUT STEPS  100000
Info: FIXED ATOMS ACTIVE
Info: LANGEVIN DYNAMICS ACTIVE
Info: LANGEVIN TEMPERATURE   30
Info: LANGEVIN USING BBK INTEGRATOR
Info: LANGEVIN DAMPING COEFFICIENT IS 1 INVERSE PS
Info: LANGEVIN DYNAMICS APPLIED TO HYDROGENS
Info: LANGEVIN PISTON PRESSURE CONTROL ACTIVE
Info:        TARGET PRESSURE IS 1.01325 BAR
Info:     OSCILLATION PERIOD IS 50 FS
Info:             DECAY TIME IS 25 FS
Info:     PISTON TEMPERATURE IS 300 K
Info:       PRESSURE CONTROL IS GROUP-BASED
Info:    INITIAL STRAIN RATE IS 0 0 0
Info:       CELL FLUCTUATION IS ISOTROPIC
Info: PARTICLE MESH EWALD (PME) ACTIVE
Info: PME TOLERANCE               1e-06
Info: PME EWALD COEFFICIENT       0.348832
Info: PME INTERPOLATION ORDER     4
Info: PME GRID DIMENSIONS         40 36 36
Info: PME MAXIMUM GRID SPACING    1
Info: FULL ELECTROSTATIC EVALUATION FREQUENCY      2
Info: USING VERLET I (r-RESPA) MTS SCHEME.
Info: C1 SPLITTING OF LONG RANGE ELECTROSTATICS
Info: PLACING ATOMS IN PATCHES BY HYDROGEN GROUPS
Info: RIGID BONDS TO HYDROGEN : ALL
Info:         ERROR TOLERANCE : 1e-08
Info:          MAX ITERATIONS : 100
Info: RIGID WATER USING SETTLE ALGORITHM
Info: RANDOM NUMBER SEED     1743738965
Info: USE HYDROGEN BONDS?    NO
Info: Using AMBER format force field!
Info: AMBER PARM FILE        mobley_778352.prmtop
Info: COORDINATE PDB         mobley_778352.pdb
Info: Exclusions will be read from PARM file!
Info: SCNB (VDW SCALING)     2
Info: USING ARITHMETIC MEAN TO COMBINE L-J SIGMA PARAMETERS
Info: BINARY COORDINATES     mobley_778352_min.coor
Info: SUMMARY OF PARAMETERS:
Info: 6 BONDS
Info: 6 ANGLES
Info: 6 DIHEDRAL
Info: 0 IMPROPER
Info: 0 CROSSTERM
Info: 0 VDW
Info: 21 VDW_PAIRS
Info: 0 NBTHOLE_PAIRS
Info: STRUCTURE SUMMARY:
Info: 2937 ATOMS
Info: 2936 BONDS
Info: 24 ANGLES
Info: 44 DIHEDRALS
Info: 0 IMPROPERS
Info: 0 CROSSTERMS
Info: 2982 EXCLUSIONS
Info: 15 FIXED ATOMS
Info: 2932 RIGID BONDS
Info: 10 RIGID BONDS BETWEEN FIXED ATOMS
Info: 5844 DEGREES OF FREEDOM
Info: 979 HYDROGEN GROUPS
Info: 4 ATOMS IN LARGEST HYDROGEN GROUP
Info: 979 MIGRATION GROUPS
Info: 4 ATOMS IN LARGEST MIGRATION GROUP
Info: 5 HYDROGEN GROUPS WITH ALL ATOMS FIXED
Info: TOTAL MASS = 17617.7 amu
Info: TOTAL CHARGE = 9.99793e-05 e
Info: MASS DENSITY = 0.666488 g/cm^3
Info: ATOM DENSITY = 0.0669095 atoms/A^3
Info: ADDED 0 IMPLICIT EXCLUSIONS
Info: NONBONDED TABLE R-SQUARED SPACING: 0.0625
Info: NONBONDED TABLE SIZE: 705 POINTS
Info: REMOVING COM VELOCITY -0.00600296 -0.0292074 -0.14313
TCL: Running for 100000 steps
ETITLE: TS BOND ANGLE DIHED IMPRP ELECT VDW BOUNDARY MISC KINETIC TOTAL TEMP POTENTIAL TOTAL3 TEMPAVG PRESSURE GPRESSURE VOLUME PRESSAVG GPRESSAVG
ENERGY: 0 0.0000 0.0000 0.0000 0.0000 -13586.7584 2383.4852 0.0000 0.0000 1731.5080 -9471.7652 298.1980 -11203.2732 -9471.3863 298.1980 310.6006 342.4507 43895.1425 310.6006 342.4507
ENERGY: 100000 0.0000 0.0000 0.0000 0.0000 -14105.4508 2485.8032 0.0000 0.0000 172.7069 -11446.9406 29.7434 -11619.6476 -11446.5055 30.8506 74.8630 137.2035 30080.4243 5.7524 5.7959
TCL: Running 100000 steps at 60 kelvin.
TCL: Setting parameter langevinTemp to 60
TCL: Running for 100000 steps
ETITLE: TS BOND ANGLE DIHED IMPRP ELECT VDW BOUNDARY MISC KINETIC TOTAL TEMP POTENTIAL TOTAL3 TEMPAVG PRESSURE GPRESSURE VOLUME PRESSAVG GPRESSAVG
ENERGY: 100000 0.0000 0.0000 0.0000 0.0000 -14105.4508 2485.8032 0.0000 0.0000 172.6236 -11447.0239 29.7290 -11619.6476 -11446.7097 29.7290 77.4518 137.2744 30080.4243 77.4518 137.2744
ENERGY: 200000 0.0000 0.0000 0.0000 0.0000 -14032.8209 2466.8769 0.0000 0.0000 353.9283 -11212.0157 60.9531 -11565.9440 -11210.8507 59.9614 249.3014 341.6303 29707.9684 4.5011 4.5068
TCL: Running 100000 steps at 90 kelvin.
TCL: Setting parameter langevinTemp to 90
TCL: Running for 100000 steps
ETITLE: TS BOND ANGLE DIHED IMPRP ELECT VDW BOUNDARY MISC KINETIC TOTAL TEMP POTENTIAL TOTAL3 TEMPAVG PRESSURE GPRESSURE VOLUME PRESSAVG GPRESSAVG
ENERGY: 200000 0.0000 0.0000 0.0000 0.0000 -14032.8209 2466.8769 0.0000 0.0000 353.7557 -11212.1883 60.9233 -11565.9440 -11211.4305 60.9233 281.1278 342.0739 29707.9684 281.1278 342.0739
ENERGY: 300000 0.0000 0.0000 0.0000 0.0000 -13978.5153 2489.3070 0.0000 0.0000 518.0731 -10971.1353 89.2218 -11489.2083 -10969.9388 89.7341 925.3307 1015.7054 28928.7360 3.9133 3.8773
TCL: Running 100000 steps at 120 kelvin.
TCL: Setting parameter langevinTemp to 120
TCL: Running for 100000 steps
ETITLE: TS BOND ANGLE DIHED IMPRP ELECT VDW BOUNDARY MISC KINETIC TOTAL TEMP POTENTIAL TOTAL3 TEMPAVG PRESSURE GPRESSURE VOLUME PRESSAVG GPRESSAVG
ENERGY: 300000 0.0000 0.0000 0.0000 0.0000 -13978.5153 2489.3070 0.0000 0.0000 517.7995 -10971.4088 89.1747 -11489.2083 -10970.3862 89.1747 950.6589 1015.6562 28928.7360 950.6589 1015.6562
ENERGY: 400000 0.0000 0.0000 0.0000 0.0000 -13690.4484 2327.9977 0.0000 0.0000 699.2620 -10663.1887 120.4260 -11362.4506 -10662.1638 120.1493 213.5483 289.7170 28841.8241 4.6080 4.5034
TCL: Running 100000 steps at 150 kelvin.
TCL: Setting parameter langevinTemp to 150
TCL: Running for 100000 steps
ETITLE: TS BOND ANGLE DIHED IMPRP ELECT VDW BOUNDARY MISC KINETIC TOTAL TEMP POTENTIAL TOTAL3 TEMPAVG PRESSURE GPRESSURE VOLUME PRESSAVG GPRESSAVG
ENERGY: 400000 0.0000 0.0000 0.0000 0.0000 -13690.4484 2327.9977 0.0000 0.0000 698.9318 -10663.5188 120.3691 -11362.4506 -10662.2093 120.3691 231.4213 288.9073 28841.8241 231.4213 288.9073
ENERGY: 500000 0.0000 0.0000 0.0000 0.0000 -13313.6705 2124.3025 0.0000 0.0000 917.1387 -10272.2294 157.9484 -11189.3680 -10269.7190 149.7175 -783.6356 -755.9395 28799.7837 4.8501 4.8124
TCL: Running 100000 steps at 180 kelvin.
TCL: Setting parameter langevinTemp to 180
TCL: Running for 100000 steps
ETITLE: TS BOND ANGLE DIHED IMPRP ELECT VDW BOUNDARY MISC KINETIC TOTAL TEMP POTENTIAL TOTAL3 TEMPAVG PRESSURE GPRESSURE VOLUME PRESSAVG GPRESSAVG
ENERGY: 500000 0.0000 0.0000 0.0000 0.0000 -13313.6705 2124.3025 0.0000 0.0000 916.7079 -10272.6601 157.8742 -11189.3680 -10270.2316 157.8742 -812.7989 -755.7793 28799.7837 -812.7989 -755.7793
ENERGY: 600000 0.0000 0.0000 0.0000 0.0000 -13041.5397 2079.8390 0.0000 0.0000 1059.2557 -9902.4450 182.4236 -10961.7007 -9901.3629 180.0873 -394.1782 -353.9858 28959.4574 3.8490 3.7880
TCL: Running 100000 steps at 210 kelvin.
TCL: Setting parameter langevinTemp to 210
TCL: Running for 100000 steps
ETITLE: TS BOND ANGLE DIHED IMPRP ELECT VDW BOUNDARY MISC KINETIC TOTAL TEMP POTENTIAL TOTAL3 TEMPAVG PRESSURE GPRESSURE VOLUME PRESSAVG GPRESSAVG
ENERGY: 600000 0.0000 0.0000 0.0000 0.0000 -13041.5397 2079.8390 0.0000 0.0000 1058.7583 -9902.9424 182.3379 -10961.7007 -9900.7064 182.3379 -428.3635 -355.8243 28959.4574 -428.3635 -355.8243
ENERGY: 700000 0.0000 0.0000 0.0000 0.0000 -12379.2384 1895.2891 0.0000 0.0000 1225.6396 -9258.3096 211.0780 -10483.9492 -9255.2421 209.8994 292.8220 350.7814 28287.5434 2.9651 3.1732
TCL: Running 100000 steps at 240 kelvin.
TCL: Setting parameter langevinTemp to 240
TCL: Running for 100000 steps
ETITLE: TS BOND ANGLE DIHED IMPRP ELECT VDW BOUNDARY MISC KINETIC TOTAL TEMP POTENTIAL TOTAL3 TEMPAVG PRESSURE GPRESSURE VOLUME PRESSAVG GPRESSAVG
ENERGY: 700000 0.0000 0.0000 0.0000 0.0000 -12379.2384 1895.2891 0.0000 0.0000 1225.0301 -9258.9192 210.9730 -10483.9492 -9257.2280 210.9730 280.9031 352.3883 28287.5434 280.9031 352.3883
ENERGY: 800000 0.0000 0.0000 0.0000 0.0000 -11704.5550 1768.1036 0.0000 0.0000 1392.8725 -8543.5789 239.8786 -9936.4514 -8541.9368 239.8741 757.9543 817.5626 28942.3886 1.8663 1.8290
TCL: Running 100000 steps at 270 kelvin.
TCL: Setting parameter langevinTemp to 270
TCL: Running for 100000 steps
ETITLE: TS BOND ANGLE DIHED IMPRP ELECT VDW BOUNDARY MISC KINETIC TOTAL TEMP POTENTIAL TOTAL3 TEMPAVG PRESSURE GPRESSURE VOLUME PRESSAVG GPRESSAVG
ENERGY: 800000 0.0000 0.0000 0.0000 0.0000 -11704.5550 1768.1036 0.0000 0.0000 1392.1824 -8544.2689 239.7598 -9936.4514 -8542.3473 239.7598 742.6929 818.3831 28942.3886 742.6929 818.3831
ENERGY: 900000 0.0000 0.0000 0.0000 0.0000 -11185.2674 1561.4716 0.0000 0.0000 1544.4476 -8079.3482 265.9827 -9623.7958 -8076.1565 269.3888 -13.0629 30.7111 29613.7910 4.3336 4.3192
TCL: Running 1000000 steps at 300 kelvin.
TCL: Setting parameter langevinTemp to 300
TCL: Running for 1000000 steps
ETITLE: TS BOND ANGLE DIHED IMPRP ELECT VDW BOUNDARY MISC KINETIC TOTAL TEMP POTENTIAL TOTAL3 TEMPAVG PRESSURE GPRESSURE VOLUME PRESSAVG GPRESSAVG
ENERGY: 900000 0.0000 0.0000 0.0000 0.0000 -11185.2674 1561.4716 0.0000 0.0000 1543.6338 -8080.1620 265.8425 -9623.7958 -8078.3673 265.8425 -53.8797 31.7851 29613.7910 -53.8797 31.7851
ENERGY: 1100000 0.0000 0.0000 0.0000 0.0000 -10590.1164 1349.3367 0.0000 0.0000 1748.6255 -7492.1542 301.1459 -9240.7797 -7489.4952 300.3870 -644.4101 -583.4638 30215.9321 2.4086 2.4388
ENERGY: 1300000 0.0000 0.0000 0.0000 0.0000 -10564.4528 1390.6653 0.0000 0.0000 1714.0866 -7459.7009 295.1977 -9173.7875 -7458.5017 299.4863 -106.0091 -52.0721 30037.6045 4.0791 4.1430
ENERGY: 1500000 0.0000 0.0000 0.0000 0.0000 -10790.4440 1509.4735 0.0000 0.0000 1743.2133 -7537.7572 300.2138 -9280.9706 -7536.3462 300.2526 488.6261 634.4172 29971.1481 4.4728 4.3714
ENERGY: 1700000 0.0000 0.0000 0.0000 0.0000 -10730.3245 1462.4933 0.0000 0.0000 1700.4517 -7567.3795 292.8495 -9267.8312 -7563.8068 300.1477 192.5997 273.2856 29903.1702 3.5385 3.6704
ENERGY: 1900000 0.0000 0.0000 0.0000 0.0000 -10673.0548 1465.7607 0.0000 0.0000 1753.6448 -7453.6493 302.0103 -9207.2941 -7448.7219 300.1947 340.0554 432.2824 29926.5253 4.1398 4.2201
TCL: Exiting due to exit command.
