Info: SIMULATION PARAMETERS:
Info: TIMESTEP               2
Info: NUMBER OF STEPS        0
Info: STEPS PER CYCLE        10
Info: PERIODIC CELL BASIS 1  36.592 0 0
Info: PERIODIC CELL BASIS 2  0 35.267 0
Info: PERIODIC CELL BASIS 3  0 0 34.68
Info: PERIODIC CELL CENTER   0 0 0
Info: WRAPPING WATERS AROUND PERIODIC BOUNDARIES ON OUTPUT.
Info: WRAPPING ALL CLUSTERS AROUND PERIODIC BOUNDARIES ON OUTPUT.
Info: FIRST LDB TIMESTEP     50
Info: LAST LDB TIMESTEP     -1
Info: HOM BACKGROUND SCALING 1
Info: PME BACKGROUND SCALING 1
Info: MIN ATOMS PER PATCH    40
Info: EMPTY PATCH LOAD       40 ATOMS
Info: INITIAL TEMPERATURE    300
Info: CENTER OF MASS MOVING INITIALLY? NO
Info: DIELECTRIC             1
Info: EXCLUDE                SCALED ONE-FOUR
Info: 1-4 ELECTROSTATICS SCALED BY 0.833333
Info: MODIFIED 1-4 VDW PARAMETERS WILL BE USED
Info: DCD FILENAME           mobley_2310185_equil.dcd
Info: DCD FREQUENCY          100000
Info: DCD FIRST STEP         100000
Info: DCD FILE WILL CONTAIN UNIT CELL DATA
Info: XST FILENAME           mobley_2310185_equil.xst
Info: XST FREQUENCY          100000
Info: NO VELOCITY DCD OUTPUT
Info: NO FORCE DCD OUTPUT
Info: OUTPUT FILENAME        mobley_2310185_equil
Info: BINARY OUTPUT FILES WILL BE USED
Info: RESTART FILENAME       mobley_2310185_equil.restart
Info: RESTART FREQUENCY      100000
Info: BINARY RESTART FILES WILL BE USED
Info: CUTOFF                 9
Info: PAIRLIST DISTANCE      11
Info: PAIRLIST SHRINK RATE   0.01
Info: PAIRLIST GROW RATE     0.01
Info: PAIRLIST TRIGGER       0.3
Info: PAIRLISTS PER CYCLE    2
Info: PAIRLISTS ENABLED
Info: MARGIN                 8
Info: HYDROGEN GROUP CUTOFF  2.5
Info: PATCH DIMENSION        21.5
Info: ENERGY OUTPUT STEPS    100000
Info: ENERGY EVALUATION STEPS    100000
Info: OUTPUT ENERGY PRECISION 4
Info: CROSSTERM ENERGY INCLUDED IN DIHEDRAL
Info: TIMING OUTPUT STEPS    1000000
Info: PRESSURE OUTPUT STEPS  100000
Info: FIXED ATOMS ACTIVE
Info: LANGEVIN DYNAMICS ACTIVE
Info: LANGEVIN TEMPERATURE   30
Info: LANGEVIN USING BBK INTEGRATOR
Info: LANGEVIN DAMPING COEFFICIENT IS 1 INVERSE PS
Info: LANGEVIN DYNAMICS APPLIED TO HYDROGENS
Info: LANGEVIN PISTON PRESSURE CONTROL ACTIVE
Info:        TARGET PRESSURE IS 1.01325 BAR
Info:     OSCILLATION PERIOD IS 50 FS
Info:             DECAY TIME IS 25 FS
Info:     PISTON TEMPERATURE IS 300 K
Info:       PRESSURE CONTROL IS GROUP-BASED
Info:    INITIAL STRAIN RATE IS 0 0 0
Info:       CELL FLUCTUATION IS ISOTROPIC
Info: PARTICLE MESH EWALD (PME) ACTIVE
Info: PME TOLERANCE               1e-06
Info: PME EWALD COEFFICIENT       0.348832
Info: PME INTERPOLATION ORDER     4
Info: PME GRID DIMENSIONS         40 36 36
Info: PME MAXIMUM GRID SPACING    1
Info: FULL ELECTROSTATIC EVALUATION FREQUENCY      2
Info: USING VERLET I (r-RESPA) MTS SCHEME.
Info: C1 SPLITTING OF LONG RANGE ELECTROSTATICS
Info: PLACING ATOMS IN PATCHES BY HYDROGEN GROUPS
Info: RIGID BONDS TO HYDROGEN : ALL
Info:         ERROR TOLERANCE : 1e-08
Info:          MAX ITERATIONS : 100
Info: RIGID WATER USING SETTLE ALGORITHM
Info: RANDOM NUMBER SEED     1744676188
Info: USE HYDROGEN BONDS?    NO
Info: Using AMBER format force field!
Info: AMBER PARM FILE        mobley_2310185.prmtop
Info: COORDINATE PDB         mobley_2310185.pdb
Info: Exclusions will be read from PARM file!
Info: SCNB (VDW SCALING)     2
Info: USING ARITHMETIC MEAN TO COMBINE L-J SIGMA PARAMETERS
Info: BINARY COORDINATES     mobley_2310185_min.coor
Info: SUMMARY OF PARAMETERS:
Info: 7 BONDS
Info: 7 ANGLES
Info: 5 DIHEDRAL
Info: 0 IMPROPER
Info: 0 CROSSTERM
Info: 0 VDW
Info: 21 VDW_PAIRS
Info: 0 NBTHOLE_PAIRS
Info: STRUCTURE SUMMARY:
Info: 2979 ATOMS
Info: 2978 BONDS
Info: 13 ANGLES
Info: 16 DIHEDRALS
Info: 0 IMPROPERS
Info: 0 CROSSTERMS
Info: 3003 EXCLUSIONS
Info: 9 FIXED ATOMS
Info: 2976 RIGID BONDS
Info: 6 RIGID BONDS BETWEEN FIXED ATOMS
Info: 5940 DEGREES OF FREEDOM
Info: 993 HYDROGEN GROUPS
Info: 4 ATOMS IN LARGEST HYDROGEN GROUP
Info: 993 MIGRATION GROUPS
Info: 4 ATOMS IN LARGEST MIGRATION GROUP
Info: 3 HYDROGEN GROUPS WITH ALL ATOMS FIXED
Info: TOTAL MASS = 17881.9 amu
Info: TOTAL CHARGE = -9.99831e-05 e
Info: MASS DENSITY = 0.663498 g/cm^3
Info: ATOM DENSITY = 0.0665636 atoms/A^3
Info: ADDED 0 IMPLICIT EXCLUSIONS
Info: NONBONDED TABLE R-SQUARED SPACING: 0.0625
Info: NONBONDED TABLE SIZE: 705 POINTS
Info: REMOVING COM VELOCITY 0.148098 0.0621239 -0.160037
TCL: Running for 100000 steps
ETITLE: TS BOND ANGLE DIHED IMPRP ELECT VDW BOUNDARY MISC KINETIC TOTAL TEMP POTENTIAL TOTAL3 TEMPAVG PRESSURE GPRESSURE VOLUME PRESSAVG GPRESSAVG
ENERGY: 0 0.0000 0.0000 0.0000 0.0000 -13848.0224 2456.6369 0.0000 0.0000 1793.9409 -9597.4446 303.9570 -11391.3855 -9597.0871 303.9570 494.4019 527.9859 44754.1954 494.4019 527.9859
ENERGY: 100000 0.0000 0.0000 0.0000 0.0000 -14449.0995 2568.4595 0.0000 0.0000 177.3481 -11703.2919 30.0490 -11880.6400 -11702.7046 30.9475 285.2746 311.8210 30619.3876 4.7276 4.7578
TCL: Running 100000 steps at 60 kelvin.
TCL: Setting parameter langevinTemp to 60
TCL: Running for 100000 steps
ETITLE: TS BOND ANGLE DIHED IMPRP ELECT VDW BOUNDARY MISC KINETIC TOTAL TEMP POTENTIAL TOTAL3 TEMPAVG PRESSURE GPRESSURE VOLUME PRESSAVG GPRESSAVG
ENERGY: 100000 0.0000 0.0000 0.0000 0.0000 -14449.0995 2568.4595 0.0000 0.0000 177.2618 -11703.3782 30.0344 -11880.6400 -11703.0041 30.0344 276.0200 312.0607 30619.3876 276.0200 312.0607
ENERGY: 200000 0.0000 0.0000 0.0000 0.0000 -14068.9390 2318.0970 0.0000 0.0000 355.0909 -11395.7511 60.1649 -11750.8419 -11394.8137 59.9345 -1274.0327 -1201.9769 30632.6436 3.2700 3.2639
TCL: Running 100000 steps at 90 kelvin.
TCL: Setting parameter langevinTemp to 90
TCL: Running for 100000 steps
ETITLE: TS BOND ANGLE DIHED IMPRP ELECT VDW BOUNDARY MISC KINETIC TOTAL TEMP POTENTIAL TOTAL3 TEMPAVG PRESSURE GPRESSURE VOLUME PRESSAVG GPRESSAVG
ENERGY: 200000 0.0000 0.0000 0.0000 0.0000 -14068.9390 2318.0970 0.0000 0.0000 354.9140 -11395.9279 60.1350 -11750.8419 -11395.0972 60.1350 -1256.8813 -1201.9194 30632.6436 -1256.8813 -1201.9194
ENERGY: 300000 0.0000 0.0000 0.0000 0.0000 -14115.6995 2415.8631 0.0000 0.0000 544.3655 -11155.4709 92.2347 -11699.8364 -11154.3223 89.7027 -186.1098 -103.6043 30024.0586 5.1150 5.0129
TCL: Running 100000 steps at 120 kelvin.
TCL: Setting parameter langevinTemp to 120
TCL: Running for 100000 steps
ETITLE: TS BOND ANGLE DIHED IMPRP ELECT VDW BOUNDARY MISC KINETIC TOTAL TEMP POTENTIAL TOTAL3 TEMPAVG PRESSURE GPRESSURE VOLUME PRESSAVG GPRESSAVG
ENERGY: 300000 0.0000 0.0000 0.0000 0.0000 -14115.6995 2415.8631 0.0000 0.0000 544.0910 -11155.7454 92.1882 -11699.8364 -11154.5286 92.1882 -172.1500 -104.1645 30024.0586 -172.1500 -104.1645
ENERGY: 400000 0.0000 0.0000 0.0000 0.0000 -13956.3298 2353.1395 0.0000 0.0000 721.2526 -10881.9376 122.2057 -11603.1903 -10881.1119 120.1238 -144.7847 -96.1299 29600.0192 5.0935 5.0375
TCL: Running 100000 steps at 150 kelvin.
TCL: Setting parameter langevinTemp to 150
TCL: Running for 100000 steps
ETITLE: TS BOND ANGLE DIHED IMPRP ELECT VDW BOUNDARY MISC KINETIC TOTAL TEMP POTENTIAL TOTAL3 TEMPAVG PRESSURE GPRESSURE VOLUME PRESSAVG GPRESSAVG
ENERGY: 400000 0.0000 0.0000 0.0000 0.0000 -13956.3298 2353.1395 0.0000 0.0000 720.9053 -10882.2850 122.1468 -11603.1903 -10880.8107 122.1468 -144.7059 -97.4222 29600.0192 -144.7059 -97.4222
ENERGY: 500000 0.0000 0.0000 0.0000 0.0000 -13651.7476 2231.3707 0.0000 0.0000 892.8426 -10527.5343 151.2791 -11420.3770 -10525.4275 149.8581 -431.7246 -400.1287 29729.4155 4.1811 4.1858
TCL: Running 100000 steps at 180 kelvin.
TCL: Setting parameter langevinTemp to 180
TCL: Running for 100000 steps
ETITLE: TS BOND ANGLE DIHED IMPRP ELECT VDW BOUNDARY MISC KINETIC TOTAL TEMP POTENTIAL TOTAL3 TEMPAVG PRESSURE GPRESSURE VOLUME PRESSAVG GPRESSAVG
ENERGY: 500000 0.0000 0.0000 0.0000 0.0000 -13651.7476 2231.3707 0.0000 0.0000 892.3801 -10527.9968 151.2007 -11420.3770 -10526.1409 151.2007 -469.2281 -400.3550 29729.4155 -469.2281 -400.3550
ENERGY: 600000 0.0000 0.0000 0.0000 0.0000 -13224.4595 2134.3042 0.0000 0.0000 1035.2602 -10054.8951 175.4096 -11090.1554 -10053.7310 180.1714 -16.7776 6.0899 29296.1610 3.5195 3.5395
TCL: Running 100000 steps at 210 kelvin.
TCL: Setting parameter langevinTemp to 210
TCL: Running for 100000 steps
ETITLE: TS BOND ANGLE DIHED IMPRP ELECT VDW BOUNDARY MISC KINETIC TOTAL TEMP POTENTIAL TOTAL3 TEMPAVG PRESSURE GPRESSURE VOLUME PRESSAVG GPRESSAVG
ENERGY: 600000 0.0000 0.0000 0.0000 0.0000 -13224.4595 2134.3042 0.0000 0.0000 1034.7459 -10055.4095 175.3225 -11090.1554 -10054.0324 175.3225 -55.2562 5.6790 29296.1610 -55.2562 5.6790
ENERGY: 700000 0.0000 0.0000 0.0000 0.0000 -12517.5013 1877.6876 0.0000 0.0000 1267.1379 -9372.6758 214.6979 -10639.8137 -9371.3987 210.0491 -320.8041 -200.8164 29070.9458 3.0472 3.0759
TCL: Running 100000 steps at 240 kelvin.
TCL: Setting parameter langevinTemp to 240
TCL: Running for 100000 steps
ETITLE: TS BOND ANGLE DIHED IMPRP ELECT VDW BOUNDARY MISC KINETIC TOTAL TEMP POTENTIAL TOTAL3 TEMPAVG PRESSURE GPRESSURE VOLUME PRESSAVG GPRESSAVG
ENERGY: 700000 0.0000 0.0000 0.0000 0.0000 -12517.5013 1877.6876 0.0000 0.0000 1266.5049 -9373.3088 214.5907 -10639.8137 -9371.1840 214.5907 -282.6350 -201.6592 29070.9458 -282.6350 -201.6592
ENERGY: 800000 0.0000 0.0000 0.0000 0.0000 -11835.7192 1646.8192 0.0000 0.0000 1391.2831 -8797.6169 235.7325 -10188.9000 -8793.3883 239.5731 -621.1775 -543.4794 29370.4533 3.0934 2.9721
TCL: Running 100000 steps at 270 kelvin.
TCL: Setting parameter langevinTemp to 270
TCL: Running for 100000 steps
ETITLE: TS BOND ANGLE DIHED IMPRP ELECT VDW BOUNDARY MISC KINETIC TOTAL TEMP POTENTIAL TOTAL3 TEMPAVG PRESSURE GPRESSURE VOLUME PRESSAVG GPRESSAVG
ENERGY: 800000 0.0000 0.0000 0.0000 0.0000 -11835.7192 1646.8192 0.0000 0.0000 1390.5791 -8798.3209 235.6132 -10188.9000 -8796.0889 235.6132 -637.3271 -541.5393 29370.4533 -637.3271 -541.5393
ENERGY: 900000 0.0000 0.0000 0.0000 0.0000 -11364.7174 1606.8219 0.0000 0.0000 1554.0218 -8203.8738 263.3062 -9757.8955 -8199.6677 270.5539 283.5094 362.7123 29955.2359 4.2194 4.3481
TCL: Running 1000000 steps at 300 kelvin.
TCL: Setting parameter langevinTemp to 300
TCL: Running for 1000000 steps
ETITLE: TS BOND ANGLE DIHED IMPRP ELECT VDW BOUNDARY MISC KINETIC TOTAL TEMP POTENTIAL TOTAL3 TEMPAVG PRESSURE GPRESSURE VOLUME PRESSAVG GPRESSAVG
ENERGY: 900000 0.0000 0.0000 0.0000 0.0000 -11364.7174 1606.8219 0.0000 0.0000 1553.2509 -8204.6446 263.1756 -9757.8955 -8202.5594 263.1756 280.4286 364.3763 29955.2359 280.4286 364.3763
ENERGY: 1100000 0.0000 0.0000 0.0000 0.0000 -10974.5259 1541.7592 0.0000 0.0000 1836.2564 -7596.5103 311.1267 -9432.7667 -7594.7806 299.5777 523.0551 573.6293 30652.9137 1.8331 1.9285
ENERGY: 1300000 0.0000 0.0000 0.0000 0.0000 -10934.7321 1470.1063 0.0000 0.0000 1788.0120 -7676.6138 302.9524 -9464.6258 -7674.4902 300.0338 175.5869 258.4186 30229.6924 2.4448 2.5612
ENERGY: 1500000 0.0000 0.0000 0.0000 0.0000 -10896.4206 1442.1420 0.0000 0.0000 1762.2421 -7692.0366 298.5860 -9454.2787 -7689.1671 300.7554 -101.2522 -56.7861 30255.4697 2.9819 2.8193
ENERGY: 1700000 0.0000 0.0000 0.0000 0.0000 -10866.7451 1422.8949 0.0000 0.0000 1810.6636 -7633.1866 306.7904 -9443.8502 -7630.1029 300.3628 -367.2891 -295.4452 30866.0606 2.4087 2.5312
ENERGY: 1900000 0.0000 0.0000 0.0000 0.0000 -10819.5852 1424.2624 0.0000 0.0000 1731.3613 -7663.9615 293.3537 -9395.3228 -7660.7312 300.0598 -71.5800 99.4146 30094.3899 2.9183 2.6930
TCL: Exiting due to exit command.
