Info: SIMULATION PARAMETERS:
Info: TIMESTEP               2
Info: NUMBER OF STEPS        0
Info: STEPS PER CYCLE        10
Info: PERIODIC CELL BASIS 1  37.399 0 0
Info: PERIODIC CELL BASIS 2  0 34.26 0
Info: PERIODIC CELL BASIS 3  0 0 34.229
Info: PERIODIC CELL CENTER   0 0 0
Info: WRAPPING WATERS AROUND PERIODIC BOUNDARIES ON OUTPUT.
Info: WRAPPING ALL CLUSTERS AROUND PERIODIC BOUNDARIES ON OUTPUT.
Info: FIRST LDB TIMESTEP     50
Info: LAST LDB TIMESTEP     -1
Info: HOM BACKGROUND SCALING 1
Info: PME BACKGROUND SCALING 1
Info: MIN ATOMS PER PATCH    40
Info: EMPTY PATCH LOAD       40 ATOMS
Info: INITIAL TEMPERATURE    300
Info: CENTER OF MASS MOVING INITIALLY? NO
Info: DIELECTRIC             1
Info: EXCLUDE                SCALED ONE-FOUR
Info: 1-4 ELECTROSTATICS SCALED BY 0.833333
Info: MODIFIED 1-4 VDW PARAMETERS WILL BE USED
Info: DCD FILENAME           mobley_1977493_equil.dcd
Info: DCD FREQUENCY          100000
Info: DCD FIRST STEP         100000
Info: DCD FILE WILL CONTAIN UNIT CELL DATA
Info: XST FILENAME           mobley_1977493_equil.xst
Info: XST FREQUENCY          100000
Info: NO VELOCITY DCD OUTPUT
Info: NO FORCE DCD OUTPUT
Info: OUTPUT FILENAME        mobley_1977493_equil
Info: BINARY OUTPUT FILES WILL BE USED
Info: RESTART FILENAME       mobley_1977493_equil.restart
Info: RESTART FREQUENCY      100000
Info: BINARY RESTART FILES WILL BE USED
Info: CUTOFF                 9
Info: PAIRLIST DISTANCE      11
Info: PAIRLIST SHRINK RATE   0.01
Info: PAIRLIST GROW RATE     0.01
Info: PAIRLIST TRIGGER       0.3
Info: PAIRLISTS PER CYCLE    2
Info: PAIRLISTS ENABLED
Info: MARGIN                 8
Info: HYDROGEN GROUP CUTOFF  2.5
Info: PATCH DIMENSION        21.5
Info: ENERGY OUTPUT STEPS    100000
Info: ENERGY EVALUATION STEPS    100000
Info: OUTPUT ENERGY PRECISION 4
Info: CROSSTERM ENERGY INCLUDED IN DIHEDRAL
Info: TIMING OUTPUT STEPS    1000000
Info: PRESSURE OUTPUT STEPS  100000
Info: FIXED ATOMS ACTIVE
Info: LANGEVIN DYNAMICS ACTIVE
Info: LANGEVIN TEMPERATURE   30
Info: LANGEVIN USING BBK INTEGRATOR
Info: LANGEVIN DAMPING COEFFICIENT IS 1 INVERSE PS
Info: LANGEVIN DYNAMICS APPLIED TO HYDROGENS
Info: LANGEVIN PISTON PRESSURE CONTROL ACTIVE
Info:        TARGET PRESSURE IS 1.01325 BAR
Info:     OSCILLATION PERIOD IS 50 FS
Info:             DECAY TIME IS 25 FS
Info:     PISTON TEMPERATURE IS 300 K
Info:       PRESSURE CONTROL IS GROUP-BASED
Info:    INITIAL STRAIN RATE IS 0 0 0
Info:       CELL FLUCTUATION IS ISOTROPIC
Info: PARTICLE MESH EWALD (PME) ACTIVE
Info: PME TOLERANCE               1e-06
Info: PME EWALD COEFFICIENT       0.348832
Info: PME INTERPOLATION ORDER     4
Info: PME GRID DIMENSIONS         40 36 36
Info: PME MAXIMUM GRID SPACING    1
Info: FULL ELECTROSTATIC EVALUATION FREQUENCY      2
Info: USING VERLET I (r-RESPA) MTS SCHEME.
Info: C1 SPLITTING OF LONG RANGE ELECTROSTATICS
Info: PLACING ATOMS IN PATCHES BY HYDROGEN GROUPS
Info: RIGID BONDS TO HYDROGEN : ALL
Info:         ERROR TOLERANCE : 1e-08
Info:          MAX ITERATIONS : 100
Info: RIGID WATER USING SETTLE ALGORITHM
Info: RANDOM NUMBER SEED     1743900822
Info: USE HYDROGEN BONDS?    NO
Info: Using AMBER format force field!
Info: AMBER PARM FILE        mobley_1977493.prmtop
Info: COORDINATE PDB         mobley_1977493.pdb
Info: Exclusions will be read from PARM file!
Info: SCNB (VDW SCALING)     2
Info: USING ARITHMETIC MEAN TO COMBINE L-J SIGMA PARAMETERS
Info: BINARY COORDINATES     mobley_1977493_min.coor
Info: SUMMARY OF PARAMETERS:
Info: 6 BONDS
Info: 7 ANGLES
Info: 5 DIHEDRAL
Info: 0 IMPROPER
Info: 0 CROSSTERM
Info: 0 VDW
Info: 21 VDW_PAIRS
Info: 0 NBTHOLE_PAIRS
Info: STRUCTURE SUMMARY:
Info: 2966 ATOMS
Info: 2965 BONDS
Info: 18 ANGLES
Info: 20 DIHEDRALS
Info: 0 IMPROPERS
Info: 0 CROSSTERMS
Info: 3001 EXCLUSIONS
Info: 11 FIXED ATOMS
Info: 2962 RIGID BONDS
Info: 7 RIGID BONDS BETWEEN FIXED ATOMS
Info: 5910 DEGREES OF FREEDOM
Info: 989 HYDROGEN GROUPS
Info: 4 ATOMS IN LARGEST HYDROGEN GROUP
Info: 989 MIGRATION GROUPS
Info: 4 ATOMS IN LARGEST MIGRATION GROUP
Info: 4 HYDROGEN GROUPS WITH ALL ATOMS FIXED
Info: TOTAL MASS = 17824.3 amu
Info: TOTAL CHARGE = -0.000100009 e
Info: MASS DENSITY = 0.674885 g/cm^3
Info: ATOM DENSITY = 0.0676285 atoms/A^3
Info: ADDED 0 IMPLICIT EXCLUSIONS
Info: NONBONDED TABLE R-SQUARED SPACING: 0.0625
Info: NONBONDED TABLE SIZE: 705 POINTS
Info: REMOVING COM VELOCITY -0.0630544 0.0363271 0.00785661
TCL: Running for 100000 steps
ETITLE: TS BOND ANGLE DIHED IMPRP ELECT VDW BOUNDARY MISC KINETIC TOTAL TEMP POTENTIAL TOTAL3 TEMPAVG PRESSURE GPRESSURE VOLUME PRESSAVG GPRESSAVG
ENERGY: 0 0.0000 0.0000 0.0000 0.0000 -13644.2964 2377.7395 0.0000 0.0000 1818.0896 -9448.4673 309.6123 -11266.5570 -9448.1005 309.6123 321.8868 357.0728 43857.2665 321.8868 357.0728
ENERGY: 100000 0.0000 0.0000 0.0000 0.0000 -14283.0167 2505.1204 0.0000 0.0000 176.5303 -11601.3661 30.0623 -11777.8964 -11601.0601 30.8401 306.5704 357.4533 29223.5879 3.2549 3.2118
TCL: Running 100000 steps at 60 kelvin.
TCL: Setting parameter langevinTemp to 60
TCL: Running for 100000 steps
ETITLE: TS BOND ANGLE DIHED IMPRP ELECT VDW BOUNDARY MISC KINETIC TOTAL TEMP POTENTIAL TOTAL3 TEMPAVG PRESSURE GPRESSURE VOLUME PRESSAVG GPRESSAVG
ENERGY: 100000 0.0000 0.0000 0.0000 0.0000 -14283.0167 2505.1204 0.0000 0.0000 176.4433 -11601.4530 30.0475 -11777.8964 -11601.0837 30.0475 304.9462 357.2640 29223.5879 304.9462 357.2640
ENERGY: 200000 0.0000 0.0000 0.0000 0.0000 -14279.7145 2538.2998 0.0000 0.0000 352.4897 -11388.9249 60.0274 -11741.4146 -11388.2203 59.9624 801.0756 832.7058 29054.1070 4.6371 4.6260
TCL: Running 100000 steps at 90 kelvin.
TCL: Setting parameter langevinTemp to 90
TCL: Running for 100000 steps
ETITLE: TS BOND ANGLE DIHED IMPRP ELECT VDW BOUNDARY MISC KINETIC TOTAL TEMP POTENTIAL TOTAL3 TEMPAVG PRESSURE GPRESSURE VOLUME PRESSAVG GPRESSAVG
ENERGY: 200000 0.0000 0.0000 0.0000 0.0000 -14279.7145 2538.2998 0.0000 0.0000 352.3148 -11389.0998 59.9976 -11741.4146 -11388.4682 59.9976 785.4231 832.6098 29054.1070 785.4231 832.6098
ENERGY: 300000 0.0000 0.0000 0.0000 0.0000 -14072.0807 2423.4841 0.0000 0.0000 531.0138 -11117.5828 90.4292 -11648.5966 -11115.7719 90.0214 255.2898 287.5271 28924.7585 4.1790 4.0812
TCL: Running 100000 steps at 120 kelvin.
TCL: Setting parameter langevinTemp to 120
TCL: Running for 100000 steps
ETITLE: TS BOND ANGLE DIHED IMPRP ELECT VDW BOUNDARY MISC KINETIC TOTAL TEMP POTENTIAL TOTAL3 TEMPAVG PRESSURE GPRESSURE VOLUME PRESSAVG GPRESSAVG
ENERGY: 300000 0.0000 0.0000 0.0000 0.0000 -14072.0807 2423.4841 0.0000 0.0000 530.7388 -11117.8579 90.3824 -11648.5966 -11117.0221 90.3824 225.3928 287.9713 28924.7585 225.3928 287.9713
ENERGY: 400000 0.0000 0.0000 0.0000 0.0000 -13956.2261 2454.3402 0.0000 0.0000 715.3284 -10786.5576 121.8171 -11501.8860 -10784.7714 120.0189 967.5241 1036.3519 28836.1655 4.3172 4.5434
TCL: Running 100000 steps at 150 kelvin.
TCL: Setting parameter langevinTemp to 150
TCL: Running for 100000 steps
ETITLE: TS BOND ANGLE DIHED IMPRP ELECT VDW BOUNDARY MISC KINETIC TOTAL TEMP POTENTIAL TOTAL3 TEMPAVG PRESSURE GPRESSURE VOLUME PRESSAVG GPRESSAVG
ENERGY: 400000 0.0000 0.0000 0.0000 0.0000 -13956.2261 2454.3402 0.0000 0.0000 714.9675 -10786.9185 121.7557 -11501.8860 -10785.7364 121.7557 978.7591 1035.8203 28836.1655 978.7591 1035.8203
ENERGY: 500000 0.0000 0.0000 0.0000 0.0000 -13599.3066 2298.8011 0.0000 0.0000 877.5109 -10422.9946 149.4361 -11300.5054 -10421.2028 149.9874 363.4102 419.8846 28964.8808 4.7253 4.7563
TCL: Running 100000 steps at 180 kelvin.
TCL: Setting parameter langevinTemp to 180
TCL: Running for 100000 steps
ETITLE: TS BOND ANGLE DIHED IMPRP ELECT VDW BOUNDARY MISC KINETIC TOTAL TEMP POTENTIAL TOTAL3 TEMPAVG PRESSURE GPRESSURE VOLUME PRESSAVG GPRESSAVG
ENERGY: 500000 0.0000 0.0000 0.0000 0.0000 -13599.3066 2298.8011 0.0000 0.0000 877.0839 -10423.4216 149.3633 -11300.5054 -10421.7051 149.3633 340.8603 419.0604 28964.8808 340.8603 419.0604
ENERGY: 600000 0.0000 0.0000 0.0000 0.0000 -13210.0272 2136.3734 0.0000 0.0000 1051.7703 -10021.8835 179.1116 -11073.6538 -10018.7732 179.9888 -172.7397 -107.0955 29297.6791 4.4732 4.5041
TCL: Running 100000 steps at 210 kelvin.
TCL: Setting parameter langevinTemp to 210
TCL: Running for 100000 steps
ETITLE: TS BOND ANGLE DIHED IMPRP ELECT VDW BOUNDARY MISC KINETIC TOTAL TEMP POTENTIAL TOTAL3 TEMPAVG PRESSURE GPRESSURE VOLUME PRESSAVG GPRESSAVG
ENERGY: 600000 0.0000 0.0000 0.0000 0.0000 -13210.0272 2136.3734 0.0000 0.0000 1051.2487 -10022.4050 179.0228 -11073.6538 -10020.2024 179.0228 -188.4791 -106.5419 29297.6791 -188.4791 -106.5419
ENERGY: 700000 0.0000 0.0000 0.0000 0.0000 -12544.3427 1948.9553 0.0000 0.0000 1262.4264 -9332.9610 214.9854 -10595.3874 -9332.0330 209.6899 283.0850 380.7465 28952.9381 3.8031 3.7143
TCL: Running 100000 steps at 240 kelvin.
TCL: Setting parameter langevinTemp to 240
TCL: Running for 100000 steps
ETITLE: TS BOND ANGLE DIHED IMPRP ELECT VDW BOUNDARY MISC KINETIC TOTAL TEMP POTENTIAL TOTAL3 TEMPAVG PRESSURE GPRESSURE VOLUME PRESSAVG GPRESSAVG
ENERGY: 700000 0.0000 0.0000 0.0000 0.0000 -12544.3427 1948.9553 0.0000 0.0000 1261.8661 -9333.5213 214.8900 -10595.3874 -9331.1926 214.8900 302.6442 378.6241 28952.9381 302.6442 378.6241
ENERGY: 800000 0.0000 0.0000 0.0000 0.0000 -11967.0347 1787.1553 0.0000 0.0000 1407.8085 -8772.0709 239.7433 -10179.8794 -8770.5040 239.8292 327.8249 414.7343 29140.5882 2.7605 2.9030
TCL: Running 100000 steps at 270 kelvin.
TCL: Setting parameter langevinTemp to 270
TCL: Running for 100000 steps
ETITLE: TS BOND ANGLE DIHED IMPRP ELECT VDW BOUNDARY MISC KINETIC TOTAL TEMP POTENTIAL TOTAL3 TEMPAVG PRESSURE GPRESSURE VOLUME PRESSAVG GPRESSAVG
ENERGY: 800000 0.0000 0.0000 0.0000 0.0000 -11967.0347 1787.1553 0.0000 0.0000 1407.0821 -8772.7973 239.6196 -10179.8794 -8770.5745 239.6196 326.5658 414.5217 29140.5882 326.5658 414.5217
ENERGY: 900000 0.0000 0.0000 0.0000 0.0000 -11368.0923 1559.0337 0.0000 0.0000 1578.4143 -8230.6442 268.7967 -9809.0586 -8226.5906 269.9630 -315.0947 -284.2352 29651.2245 3.1610 3.2381
TCL: Running 1000000 steps at 300 kelvin.
TCL: Setting parameter langevinTemp to 300
TCL: Running for 1000000 steps
ETITLE: TS BOND ANGLE DIHED IMPRP ELECT VDW BOUNDARY MISC KINETIC TOTAL TEMP POTENTIAL TOTAL3 TEMPAVG PRESSURE GPRESSURE VOLUME PRESSAVG GPRESSAVG
ENERGY: 900000 0.0000 0.0000 0.0000 0.0000 -11368.0923 1559.0337 0.0000 0.0000 1577.6060 -8231.4525 268.6590 -9809.0586 -8228.6125 268.6590 -373.0899 -283.4665 29651.2245 -373.0899 -283.4665
ENERGY: 1100000 0.0000 0.0000 0.0000 0.0000 -10781.5220 1429.0598 0.0000 0.0000 1816.7459 -7535.7163 309.3835 -9352.4622 -7528.7060 300.1521 -334.0183 -218.6646 30724.0428 3.4708 3.5220
ENERGY: 1300000 0.0000 0.0000 0.0000 0.0000 -10860.2623 1484.3023 0.0000 0.0000 1785.4266 -7590.5334 304.0499 -9375.9600 -7586.2357 300.1977 416.8306 386.0342 30195.1987 3.8752 3.8233
ENERGY: 1500000 0.0000 0.0000 0.0000 0.0000 -10720.3243 1454.7749 0.0000 0.0000 1757.6718 -7507.8776 299.3234 -9265.5494 -7504.9132 300.1943 -30.2215 61.4504 30910.3697 3.5538 3.4605
ENERGY: 1700000 0.0000 0.0000 0.0000 0.0000 -10759.1579 1471.7211 0.0000 0.0000 1778.2349 -7509.2019 302.8252 -9287.4367 -7506.3269 300.2890 318.4381 347.3091 30501.0950 2.2374 2.2920
ENERGY: 1900000 0.0000 0.0000 0.0000 0.0000 -10740.0412 1407.1592 0.0000 0.0000 1802.3274 -7530.5547 306.9280 -9332.8820 -7526.0671 300.7311 -470.2841 -347.0281 30580.5029 1.9646 2.1321
TCL: Exiting due to exit command.
