Info: SIMULATION PARAMETERS:
Info: TIMESTEP               2
Info: NUMBER OF STEPS        0
Info: STEPS PER CYCLE        10
Info: PERIODIC CELL BASIS 1  35.89 0 0
Info: PERIODIC CELL BASIS 2  0 35.779 0
Info: PERIODIC CELL BASIS 3  0 0 34.954
Info: PERIODIC CELL CENTER   0 0 0
Info: WRAPPING WATERS AROUND PERIODIC BOUNDARIES ON OUTPUT.
Info: WRAPPING ALL CLUSTERS AROUND PERIODIC BOUNDARIES ON OUTPUT.
Info: FIRST LDB TIMESTEP     50
Info: LAST LDB TIMESTEP     -1
Info: HOM BACKGROUND SCALING 1
Info: PME BACKGROUND SCALING 1
Info: MIN ATOMS PER PATCH    40
Info: EMPTY PATCH LOAD       40 ATOMS
Info: INITIAL TEMPERATURE    300
Info: CENTER OF MASS MOVING INITIALLY? NO
Info: DIELECTRIC             1
Info: EXCLUDE                SCALED ONE-FOUR
Info: 1-4 ELECTROSTATICS SCALED BY 0.833333
Info: MODIFIED 1-4 VDW PARAMETERS WILL BE USED
Info: DCD FILENAME           mobley_2784376_equil.dcd
Info: DCD FREQUENCY          100000
Info: DCD FIRST STEP         100000
Info: DCD FILE WILL CONTAIN UNIT CELL DATA
Info: XST FILENAME           mobley_2784376_equil.xst
Info: XST FREQUENCY          100000
Info: NO VELOCITY DCD OUTPUT
Info: NO FORCE DCD OUTPUT
Info: OUTPUT FILENAME        mobley_2784376_equil
Info: BINARY OUTPUT FILES WILL BE USED
Info: RESTART FILENAME       mobley_2784376_equil.restart
Info: RESTART FREQUENCY      100000
Info: BINARY RESTART FILES WILL BE USED
Info: CUTOFF                 9
Info: PAIRLIST DISTANCE      11
Info: PAIRLIST SHRINK RATE   0.01
Info: PAIRLIST GROW RATE     0.01
Info: PAIRLIST TRIGGER       0.3
Info: PAIRLISTS PER CYCLE    2
Info: PAIRLISTS ENABLED
Info: MARGIN                 8
Info: HYDROGEN GROUP CUTOFF  2.5
Info: PATCH DIMENSION        21.5
Info: ENERGY OUTPUT STEPS    100000
Info: ENERGY EVALUATION STEPS    100000
Info: OUTPUT ENERGY PRECISION 4
Info: CROSSTERM ENERGY INCLUDED IN DIHEDRAL
Info: TIMING OUTPUT STEPS    1000000
Info: PRESSURE OUTPUT STEPS  100000
Info: FIXED ATOMS ACTIVE
Info: LANGEVIN DYNAMICS ACTIVE
Info: LANGEVIN TEMPERATURE   30
Info: LANGEVIN USING BBK INTEGRATOR
Info: LANGEVIN DAMPING COEFFICIENT IS 1 INVERSE PS
Info: LANGEVIN DYNAMICS APPLIED TO HYDROGENS
Info: LANGEVIN PISTON PRESSURE CONTROL ACTIVE
Info:        TARGET PRESSURE IS 1.01325 BAR
Info:     OSCILLATION PERIOD IS 50 FS
Info:             DECAY TIME IS 25 FS
Info:     PISTON TEMPERATURE IS 300 K
Info:       PRESSURE CONTROL IS GROUP-BASED
Info:    INITIAL STRAIN RATE IS 0 0 0
Info:       CELL FLUCTUATION IS ISOTROPIC
Info: PARTICLE MESH EWALD (PME) ACTIVE
Info: PME TOLERANCE               1e-06
Info: PME EWALD COEFFICIENT       0.348832
Info: PME INTERPOLATION ORDER     4
Info: PME GRID DIMENSIONS         36 36 36
Info: PME MAXIMUM GRID SPACING    1
Info: FULL ELECTROSTATIC EVALUATION FREQUENCY      2
Info: USING VERLET I (r-RESPA) MTS SCHEME.
Info: C1 SPLITTING OF LONG RANGE ELECTROSTATICS
Info: PLACING ATOMS IN PATCHES BY HYDROGEN GROUPS
Info: RIGID BONDS TO HYDROGEN : ALL
Info:         ERROR TOLERANCE : 1e-08
Info:          MAX ITERATIONS : 100
Info: RIGID WATER USING SETTLE ALGORITHM
Info: RANDOM NUMBER SEED     1743674355
Info: USE HYDROGEN BONDS?    NO
Info: Using AMBER format force field!
Info: AMBER PARM FILE        mobley_2784376.prmtop
Info: COORDINATE PDB         mobley_2784376.pdb
Info: Exclusions will be read from PARM file!
Info: SCNB (VDW SCALING)     2
Info: USING ARITHMETIC MEAN TO COMBINE L-J SIGMA PARAMETERS
Info: BINARY COORDINATES     mobley_2784376_min.coor
Info: SUMMARY OF PARAMETERS:
Info: 4 BONDS
Info: 3 ANGLES
Info:   3 HARMONIC
Info:   0 COSINE-BASED
Info: 1 DIHEDRAL
Info: 0 IMPROPER
Info: 0 CROSSTERM
Info: 0 VDW
Info: 10 VDW_PAIRS
Info: 0 NBTHOLE_PAIRS
Info: STRUCTURE SUMMARY:
Info: 2958 ATOMS
Info: 2958 BONDS
Info: 18 ANGLES
Info: 24 DIHEDRALS
Info: 0 IMPROPERS
Info: 0 CROSSTERMS
Info: 2985 EXCLUSIONS
Info: 9 FIXED ATOMS
Info: 2955 RIGID BONDS
Info: 6 RIGID BONDS BETWEEN FIXED ATOMS
Info: 5898 DEGREES OF FREEDOM
Info: 986 HYDROGEN GROUPS
Info: 3 ATOMS IN LARGEST HYDROGEN GROUP
Info: 986 MIGRATION GROUPS
Info: 3 ATOMS IN LARGEST MIGRATION GROUP
Info: 3 HYDROGEN GROUPS WITH ALL ATOMS FIXED
Info: TOTAL MASS = 17751.8 amu
Info: TOTAL CHARGE = 0.000300005 e
Info: MASS DENSITY = 0.656755 g/cm^3
Info: ATOM DENSITY = 0.0659022 atoms/A^3
Info: ADDED 0 IMPLICIT EXCLUSIONS
Info: NONBONDED TABLE R-SQUARED SPACING: 0.0625
Info: NONBONDED TABLE SIZE: 705 POINTS
Info: REMOVING COM VELOCITY 0.0877773 0.0763246 0.180236
TCL: Running for 100000 steps
ETITLE: TS BOND ANGLE DIHED IMPRP ELECT VDW BOUNDARY MISC KINETIC TOTAL TEMP POTENTIAL TOTAL3 TEMPAVG PRESSURE GPRESSURE VOLUME PRESSAVG GPRESSAVG
ENERGY: 0 0.0000 0.0000 0.0000 0.0000 -13705.6653 2435.4004 0.0000 0.0000 1753.1110 -9517.1539 299.1541 -11270.2649 -9516.8087 299.1541 503.5959 535.1364 44884.7219 503.5959 535.1364
ENERGY: 100000 0.0000 0.0000 0.0000 0.0000 -14420.4543 2610.5348 0.0000 0.0000 172.4665 -11637.4530 29.4300 -11809.9195 -11637.0916 30.8988 956.8727 998.8054 28712.3705 5.3470 5.3187
TCL: Running 100000 steps at 60 kelvin.
TCL: Setting parameter langevinTemp to 60
TCL: Running for 100000 steps
ETITLE: TS BOND ANGLE DIHED IMPRP ELECT VDW BOUNDARY MISC KINETIC TOTAL TEMP POTENTIAL TOTAL3 TEMPAVG PRESSURE GPRESSURE VOLUME PRESSAVG GPRESSAVG
ENERGY: 100000 0.0000 0.0000 0.0000 0.0000 -14420.4543 2610.5348 0.0000 0.0000 172.3799 -11637.5396 29.4152 -11809.9195 -11637.1426 29.4152 953.7862 998.7399 28712.3705 953.7862 998.7399
ENERGY: 200000 0.0000 0.0000 0.0000 0.0000 -14301.3999 2530.1992 0.0000 0.0000 359.9724 -11411.2283 61.4264 -11771.2007 -11410.4417 59.9741 423.9487 471.0433 28878.1086 4.5708 4.4786
TCL: Running 100000 steps at 90 kelvin.
TCL: Setting parameter langevinTemp to 90
TCL: Running for 100000 steps
ETITLE: TS BOND ANGLE DIHED IMPRP ELECT VDW BOUNDARY MISC KINETIC TOTAL TEMP POTENTIAL TOTAL3 TEMPAVG PRESSURE GPRESSURE VOLUME PRESSAVG GPRESSAVG
ENERGY: 200000 0.0000 0.0000 0.0000 0.0000 -14301.3999 2530.1992 0.0000 0.0000 359.8006 -11411.4001 61.3971 -11771.2007 -11410.7159 61.3971 431.2308 470.9054 28878.1086 431.2308 470.9054
ENERGY: 300000 0.0000 0.0000 0.0000 0.0000 -14196.3958 2556.9591 0.0000 0.0000 516.4378 -11122.9990 88.1259 -11639.4368 -11121.9914 90.0336 1057.1810 1064.9235 28977.5146 2.9113 2.9086
TCL: Running 100000 steps at 120 kelvin.
TCL: Setting parameter langevinTemp to 120
TCL: Running for 100000 steps
ETITLE: TS BOND ANGLE DIHED IMPRP ELECT VDW BOUNDARY MISC KINETIC TOTAL TEMP POTENTIAL TOTAL3 TEMPAVG PRESSURE GPRESSURE VOLUME PRESSAVG GPRESSAVG
ENERGY: 300000 0.0000 0.0000 0.0000 0.0000 -14196.3958 2556.9591 0.0000 0.0000 516.1733 -11123.2634 88.0808 -11639.4368 -11122.2300 88.0808 1033.1850 1064.9110 28977.5146 1033.1850 1064.9110
ENERGY: 400000 0.0000 0.0000 0.0000 0.0000 -13742.6150 2242.3905 0.0000 0.0000 707.2449 -10792.9795 120.6856 -11500.2244 -10790.8627 119.8570 -918.0950 -862.6029 29044.7030 3.1892 3.3055
TCL: Running 100000 steps at 150 kelvin.
TCL: Setting parameter langevinTemp to 150
TCL: Running for 100000 steps
ETITLE: TS BOND ANGLE DIHED IMPRP ELECT VDW BOUNDARY MISC KINETIC TOTAL TEMP POTENTIAL TOTAL3 TEMPAVG PRESSURE GPRESSURE VOLUME PRESSAVG GPRESSAVG
ENERGY: 400000 0.0000 0.0000 0.0000 0.0000 -13742.6150 2242.3905 0.0000 0.0000 706.8968 -10793.3276 120.6262 -11500.2244 -10791.8256 120.6262 -915.3976 -862.8924 29044.7030 -915.3976 -862.8924
ENERGY: 500000 0.0000 0.0000 0.0000 0.0000 -13612.9074 2273.2912 0.0000 0.0000 889.1209 -10450.4954 151.7212 -11339.6162 -10448.7005 150.3758 1.4126 39.0405 28932.4694 3.8880 3.9075
TCL: Running 100000 steps at 180 kelvin.
TCL: Setting parameter langevinTemp to 180
TCL: Running for 100000 steps
ETITLE: TS BOND ANGLE DIHED IMPRP ELECT VDW BOUNDARY MISC KINETIC TOTAL TEMP POTENTIAL TOTAL3 TEMPAVG PRESSURE GPRESSURE VOLUME PRESSAVG GPRESSAVG
ENERGY: 500000 0.0000 0.0000 0.0000 0.0000 -13612.9074 2273.2912 0.0000 0.0000 888.6749 -10450.9413 151.6451 -11339.6162 -10448.9794 151.6451 -8.2632 37.2271 28932.4694 -8.2632 37.2271
ENERGY: 600000 0.0000 0.0000 0.0000 0.0000 -13214.2532 2140.5558 0.0000 0.0000 1065.8784 -10007.8189 181.8835 -11073.6973 -10008.0106 179.9263 -76.1835 -4.7857 28874.7731 2.6130 2.5761
TCL: Running 100000 steps at 210 kelvin.
TCL: Setting parameter langevinTemp to 210
TCL: Running for 100000 steps
ETITLE: TS BOND ANGLE DIHED IMPRP ELECT VDW BOUNDARY MISC KINETIC TOTAL TEMP POTENTIAL TOTAL3 TEMPAVG PRESSURE GPRESSURE VOLUME PRESSAVG GPRESSAVG
ENERGY: 600000 0.0000 0.0000 0.0000 0.0000 -13214.2532 2140.5558 0.0000 0.0000 1065.3674 -10008.3299 181.7963 -11073.6973 -10006.0034 181.7963 -78.9803 -6.0977 28874.7731 -78.9803 -6.0977
ENERGY: 700000 0.0000 0.0000 0.0000 0.0000 -12506.0666 1914.0661 0.0000 0.0000 1241.6496 -9350.3508 211.8774 -10592.0005 -9348.4692 209.7258 240.6772 309.5150 28447.2616 4.4596 4.5192
TCL: Running 100000 steps at 240 kelvin.
TCL: Setting parameter langevinTemp to 240
TCL: Running for 100000 steps
ETITLE: TS BOND ANGLE DIHED IMPRP ELECT VDW BOUNDARY MISC KINETIC TOTAL TEMP POTENTIAL TOTAL3 TEMPAVG PRESSURE GPRESSURE VOLUME PRESSAVG GPRESSAVG
ENERGY: 700000 0.0000 0.0000 0.0000 0.0000 -12506.0666 1914.0661 0.0000 0.0000 1240.9965 -9351.0039 211.7660 -10592.0005 -9349.4007 211.7660 236.8398 308.4273 28447.2616 236.8398 308.4273
ENERGY: 800000 0.0000 0.0000 0.0000 0.0000 -11732.3051 1673.7363 0.0000 0.0000 1420.9788 -8637.5899 242.4785 -10058.5688 -8634.6368 240.2105 -408.1175 -347.7748 29540.3198 5.2581 5.2017
TCL: Running 100000 steps at 270 kelvin.
TCL: Setting parameter langevinTemp to 270
TCL: Running for 100000 steps
ETITLE: TS BOND ANGLE DIHED IMPRP ELECT VDW BOUNDARY MISC KINETIC TOTAL TEMP POTENTIAL TOTAL3 TEMPAVG PRESSURE GPRESSURE VOLUME PRESSAVG GPRESSAVG
ENERGY: 800000 0.0000 0.0000 0.0000 0.0000 -11732.3051 1673.7363 0.0000 0.0000 1420.2767 -8638.2921 242.3587 -10058.5688 -8635.8024 242.3587 -429.5049 -347.6738 29540.3198 -429.5049 -347.6738
ENERGY: 900000 0.0000 0.0000 0.0000 0.0000 -11312.2395 1608.4944 0.0000 0.0000 1581.8539 -8121.8912 269.9305 -9703.7451 -8118.8819 269.8193 154.6811 263.5356 29549.1252 2.3215 2.3747
TCL: Running 1000000 steps at 300 kelvin.
TCL: Setting parameter langevinTemp to 300
TCL: Running for 1000000 steps
ETITLE: TS BOND ANGLE DIHED IMPRP ELECT VDW BOUNDARY MISC KINETIC TOTAL TEMP POTENTIAL TOTAL3 TEMPAVG PRESSURE GPRESSURE VOLUME PRESSAVG GPRESSAVG
ENERGY: 900000 0.0000 0.0000 0.0000 0.0000 -11312.2395 1608.4944 0.0000 0.0000 1581.0545 -8122.6907 269.7941 -9703.7451 -8120.5755 269.7941 187.6404 265.0266 29549.1252 187.6404 265.0266
ENERGY: 1100000 0.0000 0.0000 0.0000 0.0000 -10854.7229 1509.7652 0.0000 0.0000 1792.6930 -7552.2647 305.9085 -9344.9577 -7551.2446 300.4961 586.8859 625.3009 30169.5439 2.3755 2.1999
ENERGY: 1300000 0.0000 0.0000 0.0000 0.0000 -10706.1040 1376.0729 0.0000 0.0000 1773.7976 -7556.2336 302.6841 -9330.0311 -7556.4750 299.8822 -765.2553 -676.5703 30631.8240 2.7264 2.7908
ENERGY: 1500000 0.0000 0.0000 0.0000 0.0000 -10777.1739 1477.9416 0.0000 0.0000 1777.1189 -7522.1134 303.2509 -9299.2323 -7518.8190 300.1853 125.0251 189.2555 30588.8975 2.3407 2.3875
ENERGY: 1700000 0.0000 0.0000 0.0000 0.0000 -10861.0924 1472.7275 0.0000 0.0000 1787.5837 -7600.7811 305.0366 -9388.3649 -7597.1126 300.4111 -48.4718 95.1438 30312.4106 2.3486 2.4380
ENERGY: 1900000 0.0000 0.0000 0.0000 0.0000 -10777.8955 1450.8049 0.0000 0.0000 1751.4997 -7575.5910 298.8792 -9327.0907 -7573.8629 300.2472 -22.3248 35.8554 30260.8426 2.3107 2.2408
TCL: Exiting due to exit command.
