Info: SIMULATION PARAMETERS:
Info: TIMESTEP               2
Info: NUMBER OF STEPS        0
Info: STEPS PER CYCLE        10
Info: PERIODIC CELL BASIS 1  37.435 0 0
Info: PERIODIC CELL BASIS 2  0 35.411 0
Info: PERIODIC CELL BASIS 3  0 0 32.993
Info: PERIODIC CELL CENTER   0 0 0
Info: WRAPPING WATERS AROUND PERIODIC BOUNDARIES ON OUTPUT.
Info: WRAPPING ALL CLUSTERS AROUND PERIODIC BOUNDARIES ON OUTPUT.
Info: FIRST LDB TIMESTEP     50
Info: LAST LDB TIMESTEP     -1
Info: HOM BACKGROUND SCALING 1
Info: PME BACKGROUND SCALING 1
Info: MIN ATOMS PER PATCH    40
Info: EMPTY PATCH LOAD       40 ATOMS
Info: INITIAL TEMPERATURE    300
Info: CENTER OF MASS MOVING INITIALLY? NO
Info: DIELECTRIC             1
Info: EXCLUDE                SCALED ONE-FOUR
Info: 1-4 ELECTROSTATICS SCALED BY 0.833333
Info: MODIFIED 1-4 VDW PARAMETERS WILL BE USED
Info: DCD FILENAME           mobley_5518547_equil.dcd
Info: DCD FREQUENCY          100000
Info: DCD FIRST STEP         100000
Info: DCD FILE WILL CONTAIN UNIT CELL DATA
Info: XST FILENAME           mobley_5518547_equil.xst
Info: XST FREQUENCY          100000
Info: NO VELOCITY DCD OUTPUT
Info: NO FORCE DCD OUTPUT
Info: OUTPUT FILENAME        mobley_5518547_equil
Info: BINARY OUTPUT FILES WILL BE USED
Info: RESTART FILENAME       mobley_5518547_equil.restart
Info: RESTART FREQUENCY      100000
Info: BINARY RESTART FILES WILL BE USED
Info: CUTOFF                 9
Info: PAIRLIST DISTANCE      11
Info: PAIRLIST SHRINK RATE   0.01
Info: PAIRLIST GROW RATE     0.01
Info: PAIRLIST TRIGGER       0.3
Info: PAIRLISTS PER CYCLE    2
Info: PAIRLISTS ENABLED
Info: MARGIN                 8
Info: HYDROGEN GROUP CUTOFF  2.5
Info: PATCH DIMENSION        21.5
Info: ENERGY OUTPUT STEPS    100000
Info: ENERGY EVALUATION STEPS    100000
Info: OUTPUT ENERGY PRECISION 4
Info: CROSSTERM ENERGY INCLUDED IN DIHEDRAL
Info: TIMING OUTPUT STEPS    1000000
Info: PRESSURE OUTPUT STEPS  100000
Info: FIXED ATOMS ACTIVE
Info: LANGEVIN DYNAMICS ACTIVE
Info: LANGEVIN TEMPERATURE   30
Info: LANGEVIN USING BBK INTEGRATOR
Info: LANGEVIN DAMPING COEFFICIENT IS 1 INVERSE PS
Info: LANGEVIN DYNAMICS APPLIED TO HYDROGENS
Info: LANGEVIN PISTON PRESSURE CONTROL ACTIVE
Info:        TARGET PRESSURE IS 1.01325 BAR
Info:     OSCILLATION PERIOD IS 50 FS
Info:             DECAY TIME IS 25 FS
Info:     PISTON TEMPERATURE IS 300 K
Info:       PRESSURE CONTROL IS GROUP-BASED
Info:    INITIAL STRAIN RATE IS 0 0 0
Info:       CELL FLUCTUATION IS ISOTROPIC
Info: PARTICLE MESH EWALD (PME) ACTIVE
Info: PME TOLERANCE               1e-06
Info: PME EWALD COEFFICIENT       0.348832
Info: PME INTERPOLATION ORDER     4
Info: PME GRID DIMENSIONS         40 36 36
Info: PME MAXIMUM GRID SPACING    1
Info: FULL ELECTROSTATIC EVALUATION FREQUENCY      2
Info: USING VERLET I (r-RESPA) MTS SCHEME.
Info: C1 SPLITTING OF LONG RANGE ELECTROSTATICS
Info: PLACING ATOMS IN PATCHES BY HYDROGEN GROUPS
Info: RIGID BONDS TO HYDROGEN : ALL
Info:         ERROR TOLERANCE : 1e-08
Info:          MAX ITERATIONS : 100
Info: RIGID WATER USING SETTLE ALGORITHM
Info: RANDOM NUMBER SEED     1743739499
Info: USE HYDROGEN BONDS?    NO
Info: Using AMBER format force field!
Info: AMBER PARM FILE        mobley_5518547.prmtop
Info: COORDINATE PDB         mobley_5518547.pdb
Info: Exclusions will be read from PARM file!
Info: SCNB (VDW SCALING)     2
Info: USING ARITHMETIC MEAN TO COMBINE L-J SIGMA PARAMETERS
Info: BINARY COORDINATES     mobley_5518547_min.coor
Info: SUMMARY OF PARAMETERS:
Info: 8 BONDS
Info: 8 ANGLES
Info:   8 HARMONIC
Info:   0 COSINE-BASED
Info: 4 DIHEDRAL
Info: 0 IMPROPER
Info: 0 CROSSTERM
Info: 0 VDW
Info: 36 VDW_PAIRS
Info: 0 NBTHOLE_PAIRS
Info: STRUCTURE SUMMARY:
Info: 2969 ATOMS
Info: 2969 BONDS
Info: 27 ANGLES
Info: 41 DIHEDRALS
Info: 0 IMPROPERS
Info: 0 CROSSTERMS
Info: 3027 EXCLUSIONS
Info: 17 FIXED ATOMS
Info: 2961 RIGID BONDS
Info: 9 RIGID BONDS BETWEEN FIXED ATOMS
Info: 5904 DEGREES OF FREEDOM
Info: 992 HYDROGEN GROUPS
Info: 4 ATOMS IN LARGEST HYDROGEN GROUP
Info: 992 MIGRATION GROUPS
Info: 4 ATOMS IN LARGEST MIGRATION GROUP
Info: 8 HYDROGEN GROUPS WITH ALL ATOMS FIXED
Info: TOTAL MASS = 17834.9 amu
Info: TOTAL CHARGE = -0.00029999 e
Info: MASS DENSITY = 0.677161 g/cm^3
Info: ATOM DENSITY = 0.0678848 atoms/A^3
Info: ADDED 0 IMPLICIT EXCLUSIONS
Info: NONBONDED TABLE R-SQUARED SPACING: 0.0625
Info: NONBONDED TABLE SIZE: 705 POINTS
Info: REMOVING COM VELOCITY -0.0169559 0.124226 0.123362
TCL: Running for 100000 steps
ETITLE: TS BOND ANGLE DIHED IMPRP ELECT VDW BOUNDARY MISC KINETIC TOTAL TEMP POTENTIAL TOTAL3 TEMPAVG PRESSURE GPRESSURE VOLUME PRESSAVG GPRESSAVG
ENERGY: 0 0.0000 0.0000 0.0000 0.0000 -13782.8642 2391.3211 0.0000 0.0000 1704.4402 -9687.1029 290.5533 -11391.5431 -9686.7952 290.5533 202.5494 233.0389 43735.8766 202.5494 233.0389
ENERGY: 100000 0.0000 0.0000 0.0000 0.0000 -14352.9971 2460.3568 0.0000 0.0000 170.4272 -11722.2131 29.0525 -11892.6403 -11721.6840 30.8932 -274.3555 -205.9768 28823.0489 4.2507 4.2503
TCL: Running 100000 steps at 60 kelvin.
TCL: Setting parameter langevinTemp to 60
TCL: Running for 100000 steps
ETITLE: TS BOND ANGLE DIHED IMPRP ELECT VDW BOUNDARY MISC KINETIC TOTAL TEMP POTENTIAL TOTAL3 TEMPAVG PRESSURE GPRESSURE VOLUME PRESSAVG GPRESSAVG
ENERGY: 100000 0.0000 0.0000 0.0000 0.0000 -14352.9971 2460.3568 0.0000 0.0000 170.3368 -11722.3035 29.0371 -11892.6403 -11721.8726 29.0371 -272.2475 -205.8895 28823.0489 -272.2475 -205.8895
ENERGY: 200000 0.0000 0.0000 0.0000 0.0000 -14277.2581 2470.4787 0.0000 0.0000 353.9304 -11452.8491 60.3340 -11806.7795 -11452.1057 59.8900 268.8883 285.8401 28762.2009 4.2747 4.1854
TCL: Running 100000 steps at 90 kelvin.
TCL: Setting parameter langevinTemp to 90
TCL: Running for 100000 steps
ETITLE: TS BOND ANGLE DIHED IMPRP ELECT VDW BOUNDARY MISC KINETIC TOTAL TEMP POTENTIAL TOTAL3 TEMPAVG PRESSURE GPRESSURE VOLUME PRESSAVG GPRESSAVG
ENERGY: 200000 0.0000 0.0000 0.0000 0.0000 -14277.2581 2470.4787 0.0000 0.0000 353.7622 -11453.0172 60.3053 -11806.7795 -11452.3395 60.3053 231.6971 285.6321 28762.2009 231.6971 285.6321
ENERGY: 300000 0.0000 0.0000 0.0000 0.0000 -14040.7891 2297.6122 0.0000 0.0000 524.9549 -11218.2220 89.4883 -11743.1770 -11217.8756 89.8368 -763.5098 -730.7756 28607.2524 3.8979 3.9651
TCL: Running 100000 steps at 120 kelvin.
TCL: Setting parameter langevinTemp to 120
TCL: Running for 100000 steps
ETITLE: TS BOND ANGLE DIHED IMPRP ELECT VDW BOUNDARY MISC KINETIC TOTAL TEMP POTENTIAL TOTAL3 TEMPAVG PRESSURE GPRESSURE VOLUME PRESSAVG GPRESSAVG
ENERGY: 300000 0.0000 0.0000 0.0000 0.0000 -14040.7891 2297.6122 0.0000 0.0000 524.6920 -11218.4850 89.4434 -11743.1770 -11217.4960 89.4434 -773.1802 -731.5908 28607.2524 -773.1802 -731.5908
ENERGY: 400000 0.0000 0.0000 0.0000 0.0000 -13842.1724 2246.4744 0.0000 0.0000 707.0116 -10888.6865 120.5232 -11595.6980 -10886.4229 119.7245 -769.1608 -706.5099 28827.9095 3.3723 3.3977
TCL: Running 100000 steps at 150 kelvin.
TCL: Setting parameter langevinTemp to 150
TCL: Running for 100000 steps
ETITLE: TS BOND ANGLE DIHED IMPRP ELECT VDW BOUNDARY MISC KINETIC TOTAL TEMP POTENTIAL TOTAL3 TEMPAVG PRESSURE GPRESSURE VOLUME PRESSAVG GPRESSAVG
ENERGY: 400000 0.0000 0.0000 0.0000 0.0000 -13842.1724 2246.4744 0.0000 0.0000 706.6541 -10889.0440 120.4622 -11595.6980 -10887.5470 120.4622 -755.9081 -705.8900 28827.9095 -755.9081 -705.8900
ENERGY: 500000 0.0000 0.0000 0.0000 0.0000 -13726.2809 2284.6724 0.0000 0.0000 859.0820 -10582.5266 146.4464 -11441.6086 -10581.1164 150.2180 91.8321 144.2684 28911.8873 3.6818 3.6575
TCL: Running 100000 steps at 180 kelvin.
TCL: Setting parameter langevinTemp to 180
TCL: Running for 100000 steps
ETITLE: TS BOND ANGLE DIHED IMPRP ELECT VDW BOUNDARY MISC KINETIC TOTAL TEMP POTENTIAL TOTAL3 TEMPAVG PRESSURE GPRESSURE VOLUME PRESSAVG GPRESSAVG
ENERGY: 500000 0.0000 0.0000 0.0000 0.0000 -13726.2809 2284.6724 0.0000 0.0000 858.6498 -10582.9588 146.3727 -11441.6086 -10581.4069 146.3727 104.3690 144.1247 28911.8873 104.3690 144.1247
ENERGY: 600000 0.0000 0.0000 0.0000 0.0000 -13063.5683 1931.1466 0.0000 0.0000 1037.3120 -10095.1097 176.8290 -11132.4217 -10092.1512 179.9319 -1796.8471 -1796.8256 29566.9383 4.1851 4.0408
TCL: Running 100000 steps at 210 kelvin.
TCL: Setting parameter langevinTemp to 210
TCL: Running for 100000 steps
ETITLE: TS BOND ANGLE DIHED IMPRP ELECT VDW BOUNDARY MISC KINETIC TOTAL TEMP POTENTIAL TOTAL3 TEMPAVG PRESSURE GPRESSURE VOLUME PRESSAVG GPRESSAVG
ENERGY: 600000 0.0000 0.0000 0.0000 0.0000 -13063.5683 1931.1466 0.0000 0.0000 1036.7962 -10095.6255 176.7410 -11132.4217 -10092.9458 176.7410 -1861.0713 -1795.1109 29566.9383 -1861.0713 -1795.1109
ENERGY: 700000 0.0000 0.0000 0.0000 0.0000 -12575.7862 1923.1173 0.0000 0.0000 1261.3708 -9391.2981 215.0239 -10652.6689 -9390.6443 209.6364 89.6056 159.7653 29135.2875 2.2489 2.3119
TCL: Running 100000 steps at 240 kelvin.
TCL: Setting parameter langevinTemp to 240
TCL: Running for 100000 steps
ETITLE: TS BOND ANGLE DIHED IMPRP ELECT VDW BOUNDARY MISC KINETIC TOTAL TEMP POTENTIAL TOTAL3 TEMPAVG PRESSURE GPRESSURE VOLUME PRESSAVG GPRESSAVG
ENERGY: 700000 0.0000 0.0000 0.0000 0.0000 -12575.7862 1923.1173 0.0000 0.0000 1260.7366 -9391.9323 214.9158 -10652.6689 -9389.4651 214.9158 69.2590 157.2671 29135.2875 69.2590 157.2671
ENERGY: 800000 0.0000 0.0000 0.0000 0.0000 -11886.0880 1713.4201 0.0000 0.0000 1399.3776 -8773.2903 238.5497 -10172.6679 -8771.6132 239.5929 -213.7720 -159.6823 29616.3995 3.8417 3.6580
TCL: Running 100000 steps at 270 kelvin.
TCL: Setting parameter langevinTemp to 270
TCL: Running for 100000 steps
ETITLE: TS BOND ANGLE DIHED IMPRP ELECT VDW BOUNDARY MISC KINETIC TOTAL TEMP POTENTIAL TOTAL3 TEMPAVG PRESSURE GPRESSURE VOLUME PRESSAVG GPRESSAVG
ENERGY: 800000 0.0000 0.0000 0.0000 0.0000 -11886.0880 1713.4201 0.0000 0.0000 1398.6721 -8773.9958 238.4295 -10172.6679 -8771.6172 238.4295 -245.7265 -159.9585 29616.3995 -245.7265 -159.9585
ENERGY: 900000 0.0000 0.0000 0.0000 0.0000 -11298.5738 1559.4486 0.0000 0.0000 1639.7287 -8099.3964 279.5220 -9739.1251 -8095.6149 270.3898 11.1040 87.0452 29883.4141 3.3326 3.2771
TCL: Running 1000000 steps at 300 kelvin.
TCL: Setting parameter langevinTemp to 300
TCL: Running for 1000000 steps
ETITLE: TS BOND ANGLE DIHED IMPRP ELECT VDW BOUNDARY MISC KINETIC TOTAL TEMP POTENTIAL TOTAL3 TEMPAVG PRESSURE GPRESSURE VOLUME PRESSAVG GPRESSAVG
ENERGY: 900000 0.0000 0.0000 0.0000 0.0000 -11298.5738 1559.4486 0.0000 0.0000 1638.9390 -8100.1862 279.3874 -9739.1251 -8097.0894 279.3874 0.3808 86.0035 29883.4141 0.3808 86.0035
ENERGY: 1100000 0.0000 0.0000 0.0000 0.0000 -10767.1159 1428.0383 0.0000 0.0000 1797.2960 -7541.7816 306.3823 -9339.0776 -7540.2067 299.9207 -64.3742 29.2721 30838.2520 3.2047 3.3506
ENERGY: 1300000 0.0000 0.0000 0.0000 0.0000 -10793.8691 1405.8659 0.0000 0.0000 1748.7351 -7639.2680 298.1042 -9388.0032 -7636.7828 300.6521 -349.1552 -270.9147 30522.7544 4.3305 4.2323
ENERGY: 1500000 0.0000 0.0000 0.0000 0.0000 -10752.7349 1401.7445 0.0000 0.0000 1711.6770 -7639.3133 291.7869 -9350.9904 -7634.7484 299.6354 -274.2728 -216.5842 30799.3773 2.9322 2.8581
ENERGY: 1700000 0.0000 0.0000 0.0000 0.0000 -10803.4388 1418.9086 0.0000 0.0000 1732.9460 -7651.5841 295.4126 -9384.5301 -7646.6122 299.8073 -265.4571 -190.8471 30585.1274 2.5750 2.7644
ENERGY: 1900000 0.0000 0.0000 0.0000 0.0000 -10837.7391 1466.4792 0.0000 0.0000 1752.8405 -7618.4194 298.8040 -9371.2599 -7615.0774 300.0388 266.3091 388.5179 30293.3730 3.6091 3.7362
TCL: Exiting due to exit command.
