Info: SIMULATION PARAMETERS:
Info: TIMESTEP               2
Info: NUMBER OF STEPS        0
Info: STEPS PER CYCLE        10
Info: PERIODIC CELL BASIS 1  38.861 0 0
Info: PERIODIC CELL BASIS 2  0 34.696 0
Info: PERIODIC CELL BASIS 3  0 0 32.993
Info: PERIODIC CELL CENTER   0 0 0
Info: WRAPPING WATERS AROUND PERIODIC BOUNDARIES ON OUTPUT.
Info: WRAPPING ALL CLUSTERS AROUND PERIODIC BOUNDARIES ON OUTPUT.
Info: FIRST LDB TIMESTEP     50
Info: LAST LDB TIMESTEP     -1
Info: HOM BACKGROUND SCALING 1
Info: PME BACKGROUND SCALING 1
Info: MIN ATOMS PER PATCH    40
Info: EMPTY PATCH LOAD       40 ATOMS
Info: INITIAL TEMPERATURE    300
Info: CENTER OF MASS MOVING INITIALLY? NO
Info: DIELECTRIC             1
Info: EXCLUDE                SCALED ONE-FOUR
Info: 1-4 ELECTROSTATICS SCALED BY 0.833333
Info: MODIFIED 1-4 VDW PARAMETERS WILL BE USED
Info: DCD FILENAME           mobley_2972345_equil.dcd
Info: DCD FREQUENCY          100000
Info: DCD FIRST STEP         100000
Info: DCD FILE WILL CONTAIN UNIT CELL DATA
Info: XST FILENAME           mobley_2972345_equil.xst
Info: XST FREQUENCY          100000
Info: NO VELOCITY DCD OUTPUT
Info: NO FORCE DCD OUTPUT
Info: OUTPUT FILENAME        mobley_2972345_equil
Info: BINARY OUTPUT FILES WILL BE USED
Info: RESTART FILENAME       mobley_2972345_equil.restart
Info: RESTART FREQUENCY      100000
Info: BINARY RESTART FILES WILL BE USED
Info: CUTOFF                 9
Info: PAIRLIST DISTANCE      11
Info: PAIRLIST SHRINK RATE   0.01
Info: PAIRLIST GROW RATE     0.01
Info: PAIRLIST TRIGGER       0.3
Info: PAIRLISTS PER CYCLE    2
Info: PAIRLISTS ENABLED
Info: MARGIN                 8
Info: HYDROGEN GROUP CUTOFF  2.5
Info: PATCH DIMENSION        21.5
Info: ENERGY OUTPUT STEPS    100000
Info: ENERGY EVALUATION STEPS    100000
Info: OUTPUT ENERGY PRECISION 4
Info: CROSSTERM ENERGY INCLUDED IN DIHEDRAL
Info: TIMING OUTPUT STEPS    1000000
Info: PRESSURE OUTPUT STEPS  100000
Info: FIXED ATOMS ACTIVE
Info: LANGEVIN DYNAMICS ACTIVE
Info: LANGEVIN TEMPERATURE   30
Info: LANGEVIN USING BBK INTEGRATOR
Info: LANGEVIN DAMPING COEFFICIENT IS 1 INVERSE PS
Info: LANGEVIN DYNAMICS APPLIED TO HYDROGENS
Info: LANGEVIN PISTON PRESSURE CONTROL ACTIVE
Info:        TARGET PRESSURE IS 1.01325 BAR
Info:     OSCILLATION PERIOD IS 50 FS
Info:             DECAY TIME IS 25 FS
Info:     PISTON TEMPERATURE IS 300 K
Info:       PRESSURE CONTROL IS GROUP-BASED
Info:    INITIAL STRAIN RATE IS 0 0 0
Info:       CELL FLUCTUATION IS ISOTROPIC
Info: PARTICLE MESH EWALD (PME) ACTIVE
Info: PME TOLERANCE               1e-06
Info: PME EWALD COEFFICIENT       0.348832
Info: PME INTERPOLATION ORDER     4
Info: PME GRID DIMENSIONS         40 36 36
Info: PME MAXIMUM GRID SPACING    1
Info: FULL ELECTROSTATIC EVALUATION FREQUENCY      2
Info: USING VERLET I (r-RESPA) MTS SCHEME.
Info: C1 SPLITTING OF LONG RANGE ELECTROSTATICS
Info: PLACING ATOMS IN PATCHES BY HYDROGEN GROUPS
Info: RIGID BONDS TO HYDROGEN : ALL
Info:         ERROR TOLERANCE : 1e-08
Info:          MAX ITERATIONS : 100
Info: RIGID WATER USING SETTLE ALGORITHM
Info: RANDOM NUMBER SEED     1743765326
Info: USE HYDROGEN BONDS?    NO
Info: Using AMBER format force field!
Info: AMBER PARM FILE        mobley_2972345.prmtop
Info: COORDINATE PDB         mobley_2972345.pdb
Info: Exclusions will be read from PARM file!
Info: SCNB (VDW SCALING)     2
Info: USING ARITHMETIC MEAN TO COMBINE L-J SIGMA PARAMETERS
Info: BINARY COORDINATES     mobley_2972345_min.coor
Info: SUMMARY OF PARAMETERS:
Info: 6 BONDS
Info: 6 ANGLES
Info:   6 HARMONIC
Info:   0 COSINE-BASED
Info: 3 DIHEDRAL
Info: 0 IMPROPER
Info: 0 CROSSTERM
Info: 0 VDW
Info: 21 VDW_PAIRS
Info: 0 NBTHOLE_PAIRS
Info: STRUCTURE SUMMARY:
Info: 2963 ATOMS
Info: 2965 BONDS
Info: 48 ANGLES
Info: 84 DIHEDRALS
Info: 0 IMPROPERS
Info: 0 CROSSTERMS
Info: 3076 EXCLUSIONS
Info: 26 FIXED ATOMS
Info: 2949 RIGID BONDS
Info: 12 RIGID BONDS BETWEEN FIXED ATOMS
Info: 5874 DEGREES OF FREEDOM
Info: 993 HYDROGEN GROUPS
Info: 3 ATOMS IN LARGEST HYDROGEN GROUP
Info: 993 MIGRATION GROUPS
Info: 3 ATOMS IN LARGEST MIGRATION GROUP
Info: 14 HYDROGEN GROUPS WITH ALL ATOMS FIXED
Info: TOTAL MASS = 17817.9 amu
Info: TOTAL CHARGE = -0.000200078 e
Info: MASS DENSITY = 0.665121 g/cm^3
Info: ATOM DENSITY = 0.0666065 atoms/A^3
Info: ADDED 0 IMPLICIT EXCLUSIONS
Info: NONBONDED TABLE R-SQUARED SPACING: 0.0625
Info: NONBONDED TABLE SIZE: 705 POINTS
Info: REMOVING COM VELOCITY 0.0200464 0.0898912 -0.0748304
TCL: Running for 100000 steps
ETITLE: TS BOND ANGLE DIHED IMPRP ELECT VDW BOUNDARY MISC KINETIC TOTAL TEMP POTENTIAL TOTAL3 TEMPAVG PRESSURE GPRESSURE VOLUME PRESSAVG GPRESSAVG
ENERGY: 0 0.0000 0.0000 0.0000 0.0000 -13685.0514 2401.8698 0.0000 0.0000 1768.9507 -9514.2309 303.0904 -11283.1815 -9513.8807 303.0904 420.1107 453.9255 44485.1632 420.1107 453.9255
ENERGY: 100000 0.0000 0.0000 0.0000 0.0000 -14142.0621 2423.8605 0.0000 0.0000 173.0070 -11545.1946 29.6429 -11718.2016 -11544.7255 30.8915 -564.2002 -517.0592 29953.3649 3.0768 3.0983
TCL: Running 100000 steps at 60 kelvin.
TCL: Setting parameter langevinTemp to 60
TCL: Running for 100000 steps
ETITLE: TS BOND ANGLE DIHED IMPRP ELECT VDW BOUNDARY MISC KINETIC TOTAL TEMP POTENTIAL TOTAL3 TEMPAVG PRESSURE GPRESSURE VOLUME PRESSAVG GPRESSAVG
ENERGY: 100000 0.0000 0.0000 0.0000 0.0000 -14142.0621 2423.8605 0.0000 0.0000 172.9199 -11545.2817 29.6279 -11718.2016 -11544.9534 29.6279 -576.8711 -516.9954 29953.3649 -576.8711 -516.9954
ENERGY: 200000 0.0000 0.0000 0.0000 0.0000 -14024.4792 2364.9923 0.0000 0.0000 354.7197 -11304.7672 60.7773 -11659.4869 -11303.5143 59.9366 -595.3948 -566.6900 29382.1476 4.2181 4.3037
TCL: Running 100000 steps at 90 kelvin.
TCL: Setting parameter langevinTemp to 90
TCL: Running for 100000 steps
ETITLE: TS BOND ANGLE DIHED IMPRP ELECT VDW BOUNDARY MISC KINETIC TOTAL TEMP POTENTIAL TOTAL3 TEMPAVG PRESSURE GPRESSURE VOLUME PRESSAVG GPRESSAVG
ENERGY: 200000 0.0000 0.0000 0.0000 0.0000 -14024.4792 2364.9923 0.0000 0.0000 354.5431 -11304.9438 60.7471 -11659.4869 -11304.1262 60.7471 -616.7342 -566.2497 29382.1476 -616.7342 -566.2497
ENERGY: 300000 0.0000 0.0000 0.0000 0.0000 -13912.3642 2357.9677 0.0000 0.0000 532.6761 -11021.7204 91.2682 -11554.3965 -11020.2726 90.0657 -140.1399 -67.2592 28949.0433 4.1789 4.1823
TCL: Running 100000 steps at 120 kelvin.
TCL: Setting parameter langevinTemp to 120
TCL: Running for 100000 steps
ETITLE: TS BOND ANGLE DIHED IMPRP ELECT VDW BOUNDARY MISC KINETIC TOTAL TEMP POTENTIAL TOTAL3 TEMPAVG PRESSURE GPRESSURE VOLUME PRESSAVG GPRESSAVG
ENERGY: 300000 0.0000 0.0000 0.0000 0.0000 -13912.3642 2357.9677 0.0000 0.0000 532.4110 -11021.9855 91.2228 -11554.3965 -11020.8126 91.2228 -102.2315 -66.4001 28949.0433 -102.2315 -66.4001
ENERGY: 400000 0.0000 0.0000 0.0000 0.0000 -13859.3353 2369.2841 0.0000 0.0000 719.5130 -10770.5382 123.2807 -11490.0512 -10769.0510 119.8990 395.9786 486.3838 28682.3059 4.7280 4.6909
TCL: Running 100000 steps at 150 kelvin.
TCL: Setting parameter langevinTemp to 150
TCL: Running for 100000 steps
ETITLE: TS BOND ANGLE DIHED IMPRP ELECT VDW BOUNDARY MISC KINETIC TOTAL TEMP POTENTIAL TOTAL3 TEMPAVG PRESSURE GPRESSURE VOLUME PRESSAVG GPRESSAVG
ENERGY: 400000 0.0000 0.0000 0.0000 0.0000 -13859.3353 2369.2841 0.0000 0.0000 719.1549 -10770.8963 123.2193 -11490.0512 -10769.7264 123.2193 442.4997 486.2504 28682.3059 442.4997 486.2504
ENERGY: 500000 0.0000 0.0000 0.0000 0.0000 -13461.3098 2154.5609 0.0000 0.0000 902.8867 -10403.8623 154.6998 -11306.7489 -10401.4503 150.0433 -757.2796 -735.4327 29079.9811 4.6004 4.5379
TCL: Running 100000 steps at 180 kelvin.
TCL: Setting parameter langevinTemp to 180
TCL: Running for 100000 steps
ETITLE: TS BOND ANGLE DIHED IMPRP ELECT VDW BOUNDARY MISC KINETIC TOTAL TEMP POTENTIAL TOTAL3 TEMPAVG PRESSURE GPRESSURE VOLUME PRESSAVG GPRESSAVG
ENERGY: 500000 0.0000 0.0000 0.0000 0.0000 -13461.3098 2154.5609 0.0000 0.0000 902.4481 -10404.3009 154.6246 -11306.7489 -10402.3312 154.6246 -788.7567 -736.4692 29079.9811 -788.7567 -736.4692
ENERGY: 600000 0.0000 0.0000 0.0000 0.0000 -13030.6421 2042.4561 0.0000 0.0000 1036.7211 -9951.4649 177.6308 -10988.1860 -9948.2446 179.9231 -679.7346 -551.7188 29281.3988 4.2404 4.2040
TCL: Running 100000 steps at 210 kelvin.
TCL: Setting parameter langevinTemp to 210
TCL: Running for 100000 steps
ETITLE: TS BOND ANGLE DIHED IMPRP ELECT VDW BOUNDARY MISC KINETIC TOTAL TEMP POTENTIAL TOTAL3 TEMPAVG PRESSURE GPRESSURE VOLUME PRESSAVG GPRESSAVG
ENERGY: 600000 0.0000 0.0000 0.0000 0.0000 -13030.6421 2042.4561 0.0000 0.0000 1036.1947 -9951.9914 177.5406 -10988.1860 -9949.7347 177.5406 -626.3266 -553.0979 29281.3988 -626.3266 -553.0979
ENERGY: 700000 0.0000 0.0000 0.0000 0.0000 -12493.0266 1913.7332 0.0000 0.0000 1221.2210 -9358.0725 209.2429 -10579.2934 -9353.9808 210.0113 421.4783 514.2778 28333.4942 3.9964 3.8999
TCL: Running 100000 steps at 240 kelvin.
TCL: Setting parameter langevinTemp to 240
TCL: Running for 100000 steps
ETITLE: TS BOND ANGLE DIHED IMPRP ELECT VDW BOUNDARY MISC KINETIC TOTAL TEMP POTENTIAL TOTAL3 TEMPAVG PRESSURE GPRESSURE VOLUME PRESSAVG GPRESSAVG
ENERGY: 700000 0.0000 0.0000 0.0000 0.0000 -12493.0266 1913.7332 0.0000 0.0000 1220.5883 -9358.7051 209.1345 -10579.2934 -9356.8814 209.1345 452.1343 515.0054 28333.4942 452.1343 515.0054
ENERGY: 800000 0.0000 0.0000 0.0000 0.0000 -11798.2431 1717.9632 0.0000 0.0000 1395.1577 -8685.1222 239.0450 -10080.2799 -8681.0080 239.9829 191.6008 263.2717 29107.9878 3.9545 3.7684
TCL: Running 100000 steps at 270 kelvin.
TCL: Setting parameter langevinTemp to 270
TCL: Running for 100000 steps
ETITLE: TS BOND ANGLE DIHED IMPRP ELECT VDW BOUNDARY MISC KINETIC TOTAL TEMP POTENTIAL TOTAL3 TEMPAVG PRESSURE GPRESSURE VOLUME PRESSAVG GPRESSAVG
ENERGY: 800000 0.0000 0.0000 0.0000 0.0000 -11798.2431 1717.9632 0.0000 0.0000 1394.4292 -8685.8507 238.9202 -10080.2799 -8683.2687 238.9202 189.4824 264.7203 29107.9878 189.4824 264.7203
ENERGY: 900000 0.0000 0.0000 0.0000 0.0000 -11194.2486 1547.4154 0.0000 0.0000 1554.4318 -8092.4014 266.3349 -9646.8332 -8087.9293 269.9400 -84.6304 -40.9106 30194.6939 3.9465 3.8616
TCL: Running 1000000 steps at 300 kelvin.
TCL: Setting parameter langevinTemp to 300
TCL: Running for 1000000 steps
ETITLE: TS BOND ANGLE DIHED IMPRP ELECT VDW BOUNDARY MISC KINETIC TOTAL TEMP POTENTIAL TOTAL3 TEMPAVG PRESSURE GPRESSURE VOLUME PRESSAVG GPRESSAVG
ENERGY: 900000 0.0000 0.0000 0.0000 0.0000 -11194.2486 1547.4154 0.0000 0.0000 1553.6312 -8093.2020 266.1977 -9646.8332 -8091.4910 266.1977 -116.4589 -39.0008 30194.6939 -116.4589 -39.0008
ENERGY: 1100000 0.0000 0.0000 0.0000 0.0000 -10694.7802 1434.0414 0.0000 0.0000 1780.7315 -7480.0073 305.1089 -9260.7389 -7474.6150 300.3159 167.3577 223.4853 30540.1622 4.0200 4.0475
ENERGY: 1300000 0.0000 0.0000 0.0000 0.0000 -10797.9861 1497.1819 0.0000 0.0000 1765.0249 -7535.7793 302.4178 -9300.8043 -7532.6527 300.4064 308.4274 386.0806 30520.7717 2.7986 2.6340
ENERGY: 1500000 0.0000 0.0000 0.0000 0.0000 -10789.6734 1477.0793 0.0000 0.0000 1823.3585 -7489.2356 312.4126 -9312.5941 -7486.0316 299.8547 450.8707 526.6590 30274.3819 4.0954 3.7913
ENERGY: 1700000 0.0000 0.0000 0.0000 0.0000 -10680.6658 1392.4996 0.0000 0.0000 1751.3860 -7536.7802 300.0809 -9288.1663 -7534.3852 300.2074 -236.4225 -175.7794 30518.4558 3.6854 3.6697
ENERGY: 1900000 0.0000 0.0000 0.0000 0.0000 -10509.8122 1311.3284 0.0000 0.0000 1812.3450 -7386.1388 310.5255 -9198.4838 -7381.6640 299.9775 -802.4979 -706.4679 30762.1967 2.3216 2.2728
TCL: Exiting due to exit command.
