Info: SIMULATION PARAMETERS:
Info: TIMESTEP               2
Info: NUMBER OF STEPS        0
Info: STEPS PER CYCLE        10
Info: PERIODIC CELL BASIS 1  37.133 0 0
Info: PERIODIC CELL BASIS 2  0 34.26 0
Info: PERIODIC CELL BASIS 3  0 0 34.229
Info: PERIODIC CELL CENTER   0 0 0
Info: WRAPPING WATERS AROUND PERIODIC BOUNDARIES ON OUTPUT.
Info: WRAPPING ALL CLUSTERS AROUND PERIODIC BOUNDARIES ON OUTPUT.
Info: FIRST LDB TIMESTEP     50
Info: LAST LDB TIMESTEP     -1
Info: HOM BACKGROUND SCALING 1
Info: PME BACKGROUND SCALING 1
Info: MIN ATOMS PER PATCH    40
Info: EMPTY PATCH LOAD       40 ATOMS
Info: INITIAL TEMPERATURE    300
Info: CENTER OF MASS MOVING INITIALLY? NO
Info: DIELECTRIC             1
Info: EXCLUDE                SCALED ONE-FOUR
Info: 1-4 ELECTROSTATICS SCALED BY 0.833333
Info: MODIFIED 1-4 VDW PARAMETERS WILL BE USED
Info: DCD FILENAME           mobley_7690440_equil.dcd
Info: DCD FREQUENCY          100000
Info: DCD FIRST STEP         100000
Info: DCD FILE WILL CONTAIN UNIT CELL DATA
Info: XST FILENAME           mobley_7690440_equil.xst
Info: XST FREQUENCY          100000
Info: NO VELOCITY DCD OUTPUT
Info: NO FORCE DCD OUTPUT
Info: OUTPUT FILENAME        mobley_7690440_equil
Info: BINARY OUTPUT FILES WILL BE USED
Info: RESTART FILENAME       mobley_7690440_equil.restart
Info: RESTART FREQUENCY      100000
Info: BINARY RESTART FILES WILL BE USED
Info: CUTOFF                 9
Info: PAIRLIST DISTANCE      11
Info: PAIRLIST SHRINK RATE   0.01
Info: PAIRLIST GROW RATE     0.01
Info: PAIRLIST TRIGGER       0.3
Info: PAIRLISTS PER CYCLE    2
Info: PAIRLISTS ENABLED
Info: MARGIN                 8
Info: HYDROGEN GROUP CUTOFF  2.5
Info: PATCH DIMENSION        21.5
Info: ENERGY OUTPUT STEPS    100000
Info: ENERGY EVALUATION STEPS    100000
Info: OUTPUT ENERGY PRECISION 4
Info: CROSSTERM ENERGY INCLUDED IN DIHEDRAL
Info: TIMING OUTPUT STEPS    1000000
Info: PRESSURE OUTPUT STEPS  100000
Info: FIXED ATOMS ACTIVE
Info: LANGEVIN DYNAMICS ACTIVE
Info: LANGEVIN TEMPERATURE   30
Info: LANGEVIN USING BBK INTEGRATOR
Info: LANGEVIN DAMPING COEFFICIENT IS 1 INVERSE PS
Info: LANGEVIN DYNAMICS APPLIED TO HYDROGENS
Info: LANGEVIN PISTON PRESSURE CONTROL ACTIVE
Info:        TARGET PRESSURE IS 1.01325 BAR
Info:     OSCILLATION PERIOD IS 50 FS
Info:             DECAY TIME IS 25 FS
Info:     PISTON TEMPERATURE IS 300 K
Info:       PRESSURE CONTROL IS GROUP-BASED
Info:    INITIAL STRAIN RATE IS 0 0 0
Info:       CELL FLUCTUATION IS ISOTROPIC
Info: PARTICLE MESH EWALD (PME) ACTIVE
Info: PME TOLERANCE               1e-06
Info: PME EWALD COEFFICIENT       0.348832
Info: PME INTERPOLATION ORDER     4
Info: PME GRID DIMENSIONS         40 36 36
Info: PME MAXIMUM GRID SPACING    1
Info: FULL ELECTROSTATIC EVALUATION FREQUENCY      2
Info: USING VERLET I (r-RESPA) MTS SCHEME.
Info: C1 SPLITTING OF LONG RANGE ELECTROSTATICS
Info: PLACING ATOMS IN PATCHES BY HYDROGEN GROUPS
Info: RIGID BONDS TO HYDROGEN : ALL
Info:         ERROR TOLERANCE : 1e-08
Info:          MAX ITERATIONS : 100
Info: RIGID WATER USING SETTLE ALGORITHM
Info: RANDOM NUMBER SEED     1743900789
Info: USE HYDROGEN BONDS?    NO
Info: Using AMBER format force field!
Info: AMBER PARM FILE        mobley_7690440.prmtop
Info: COORDINATE PDB         mobley_7690440.pdb
Info: Exclusions will be read from PARM file!
Info: SCNB (VDW SCALING)     2
Info: USING ARITHMETIC MEAN TO COMBINE L-J SIGMA PARAMETERS
Info: BINARY COORDINATES     mobley_7690440_min.coor
Info: SUMMARY OF PARAMETERS:
Info: 5 BONDS
Info: 3 ANGLES
Info:   3 HARMONIC
Info:   0 COSINE-BASED
Info: 3 DIHEDRAL
Info: 0 IMPROPER
Info: 0 CROSSTERM
Info: 0 VDW
Info: 15 VDW_PAIRS
Info: 0 NBTHOLE_PAIRS
Info: STRUCTURE SUMMARY:
Info: 2926 ATOMS
Info: 2925 BONDS
Info: 14 ANGLES
Info: 8 DIHEDRALS
Info: 0 IMPROPERS
Info: 0 CROSSTERMS
Info: 2946 EXCLUSIONS
Info: 10 FIXED ATOMS
Info: 2922 RIGID BONDS
Info: 6 RIGID BONDS BETWEEN FIXED ATOMS
Info: 5832 DEGREES OF FREEDOM
Info: 976 HYDROGEN GROUPS
Info: 4 ATOMS IN LARGEST HYDROGEN GROUP
Info: 976 MIGRATION GROUPS
Info: 4 ATOMS IN LARGEST MIGRATION GROUP
Info: 4 HYDROGEN GROUPS WITH ALL ATOMS FIXED
Info: TOTAL MASS = 17605.7 amu
Info: TOTAL CHARGE = 0.000100009 e
Info: MASS DENSITY = 0.671385 g/cm^3
Info: ATOM DENSITY = 0.0671943 atoms/A^3
Info: ADDED 0 IMPLICIT EXCLUSIONS
Info: NONBONDED TABLE R-SQUARED SPACING: 0.0625
Info: NONBONDED TABLE SIZE: 705 POINTS
Info: REMOVING COM VELOCITY -0.109429 0.0117282 0.00815685
TCL: Running for 100000 steps
ETITLE: TS BOND ANGLE DIHED IMPRP ELECT VDW BOUNDARY MISC KINETIC TOTAL TEMP POTENTIAL TOTAL3 TEMPAVG PRESSURE GPRESSURE VOLUME PRESSAVG GPRESSAVG
ENERGY: 0 0.0000 0.0000 0.0000 0.0000 -13488.3525 2345.1667 0.0000 0.0000 1702.9352 -9440.2506 293.8807 -11143.1859 -9439.9069 293.8807 257.1270 298.2145 43545.3322 257.1270 298.2145
ENERGY: 100000 0.0000 0.0000 0.0000 0.0000 -14020.7523 2356.6447 0.0000 0.0000 171.9352 -11492.1724 29.6714 -11664.1075 -11491.7978 30.9328 -813.9090 -769.1598 28539.7800 2.6802 2.6427
TCL: Running 100000 steps at 60 kelvin.
TCL: Setting parameter langevinTemp to 60
TCL: Running for 100000 steps
ETITLE: TS BOND ANGLE DIHED IMPRP ELECT VDW BOUNDARY MISC KINETIC TOTAL TEMP POTENTIAL TOTAL3 TEMPAVG PRESSURE GPRESSURE VOLUME PRESSAVG GPRESSAVG
ENERGY: 100000 0.0000 0.0000 0.0000 0.0000 -14020.7523 2356.6447 0.0000 0.0000 171.8485 -11492.2590 29.6564 -11664.1075 -11491.8164 29.6564 -821.8831 -769.3521 28539.7800 -821.8831 -769.3521
ENERGY: 200000 0.0000 0.0000 0.0000 0.0000 -14001.3595 2436.0449 0.0000 0.0000 350.3437 -11214.9710 60.4599 -11565.3147 -11214.4927 59.9005 400.3869 489.5081 28157.7826 3.8355 3.8077
TCL: Running 100000 steps at 90 kelvin.
TCL: Setting parameter langevinTemp to 90
TCL: Running for 100000 steps
ETITLE: TS BOND ANGLE DIHED IMPRP ELECT VDW BOUNDARY MISC KINETIC TOTAL TEMP POTENTIAL TOTAL3 TEMPAVG PRESSURE GPRESSURE VOLUME PRESSAVG GPRESSAVG
ENERGY: 200000 0.0000 0.0000 0.0000 0.0000 -14001.3595 2436.0449 0.0000 0.0000 350.1717 -11215.1430 60.4302 -11565.3147 -11214.3712 60.4302 429.4439 489.2093 28157.7826 429.4439 489.2093
ENERGY: 300000 0.0000 0.0000 0.0000 0.0000 -13755.1515 2249.5211 0.0000 0.0000 521.2655 -10984.3649 89.9564 -11505.6305 -10982.8853 90.0516 -873.4384 -813.1129 28162.2832 4.0550 4.0682
TCL: Running 100000 steps at 120 kelvin.
TCL: Setting parameter langevinTemp to 120
TCL: Running for 100000 steps
ETITLE: TS BOND ANGLE DIHED IMPRP ELECT VDW BOUNDARY MISC KINETIC TOTAL TEMP POTENTIAL TOTAL3 TEMPAVG PRESSURE GPRESSURE VOLUME PRESSAVG GPRESSAVG
ENERGY: 300000 0.0000 0.0000 0.0000 0.0000 -13755.1515 2249.5211 0.0000 0.0000 521.0112 -10984.6193 89.9125 -11505.6305 -10983.5322 89.9125 -885.9910 -813.2928 28162.2832 -885.9910 -813.2928
ENERGY: 400000 0.0000 0.0000 0.0000 0.0000 -13778.7960 2366.7869 0.0000 0.0000 668.7492 -10743.2599 115.4081 -11412.0091 -10742.1854 120.0471 264.7141 315.2870 28340.9906 4.8160 4.8426
TCL: Running 100000 steps at 150 kelvin.
TCL: Setting parameter langevinTemp to 150
TCL: Running for 100000 steps
ETITLE: TS BOND ANGLE DIHED IMPRP ELECT VDW BOUNDARY MISC KINETIC TOTAL TEMP POTENTIAL TOTAL3 TEMPAVG PRESSURE GPRESSURE VOLUME PRESSAVG GPRESSAVG
ENERGY: 400000 0.0000 0.0000 0.0000 0.0000 -13778.7960 2366.7869 0.0000 0.0000 668.4089 -10743.6002 115.3493 -11412.0091 -10742.3774 115.3493 249.5148 314.9004 28340.9906 249.5148 314.9004
ENERGY: 500000 0.0000 0.0000 0.0000 0.0000 -13425.6860 2228.2815 0.0000 0.0000 867.6392 -10329.7653 149.7311 -11197.4045 -10327.9064 149.7447 -221.7125 -139.7774 28747.7168 2.5446 2.4045
TCL: Running 100000 steps at 180 kelvin.
TCL: Setting parameter langevinTemp to 180
TCL: Running for 100000 steps
ETITLE: TS BOND ANGLE DIHED IMPRP ELECT VDW BOUNDARY MISC KINETIC TOTAL TEMP POTENTIAL TOTAL3 TEMPAVG PRESSURE GPRESSURE VOLUME PRESSAVG GPRESSAVG
ENERGY: 500000 0.0000 0.0000 0.0000 0.0000 -13425.6860 2228.2815 0.0000 0.0000 867.1962 -10330.2083 149.6546 -11197.4045 -10328.5164 149.6546 -191.6401 -140.8389 28747.7168 -191.6401 -140.8389
ENERGY: 600000 0.0000 0.0000 0.0000 0.0000 -12887.8573 2009.6924 0.0000 0.0000 1020.4632 -9857.7017 176.1044 -10878.1648 -9854.6300 179.9586 -588.8273 -524.6039 28561.7193 5.0827 5.1239
TCL: Running 100000 steps at 210 kelvin.
TCL: Setting parameter langevinTemp to 210
TCL: Running for 100000 steps
ETITLE: TS BOND ANGLE DIHED IMPRP ELECT VDW BOUNDARY MISC KINETIC TOTAL TEMP POTENTIAL TOTAL3 TEMPAVG PRESSURE GPRESSURE VOLUME PRESSAVG GPRESSAVG
ENERGY: 600000 0.0000 0.0000 0.0000 0.0000 -12887.8573 2009.6924 0.0000 0.0000 1019.9331 -9858.2318 176.0129 -10878.1648 -9856.3571 176.0129 -573.5082 -523.6767 28561.7193 -573.5082 -523.6767
ENERGY: 700000 0.0000 0.0000 0.0000 0.0000 -12284.7448 1828.5818 0.0000 0.0000 1253.4770 -9202.6860 216.3163 -10456.1630 -9200.5131 210.0558 -468.0174 -413.5046 28678.2818 4.4900 4.6137
TCL: Running 100000 steps at 240 kelvin.
TCL: Setting parameter langevinTemp to 240
TCL: Running for 100000 steps
ETITLE: TS BOND ANGLE DIHED IMPRP ELECT VDW BOUNDARY MISC KINETIC TOTAL TEMP POTENTIAL TOTAL3 TEMPAVG PRESSURE GPRESSURE VOLUME PRESSAVG GPRESSAVG
ENERGY: 700000 0.0000 0.0000 0.0000 0.0000 -12284.7448 1828.5818 0.0000 0.0000 1252.8626 -9203.3004 216.2103 -10456.1630 -9201.4412 216.2103 -475.5799 -414.8651 28678.2818 -475.5799 -414.8651
ENERGY: 800000 0.0000 0.0000 0.0000 0.0000 -11763.6930 1758.9745 0.0000 0.0000 1333.4893 -8671.2292 230.1243 -10004.7185 -8667.9325 239.9757 603.8218 654.3893 28561.0746 4.1315 3.9697
TCL: Running 100000 steps at 270 kelvin.
TCL: Setting parameter langevinTemp to 270
TCL: Running for 100000 steps
ETITLE: TS BOND ANGLE DIHED IMPRP ELECT VDW BOUNDARY MISC KINETIC TOTAL TEMP POTENTIAL TOTAL3 TEMPAVG PRESSURE GPRESSURE VOLUME PRESSAVG GPRESSAVG
ENERGY: 800000 0.0000 0.0000 0.0000 0.0000 -11763.6930 1758.9745 0.0000 0.0000 1332.7951 -8671.9234 230.0045 -10004.7185 -8669.5157 230.0045 572.9230 653.6304 28561.0746 572.9230 653.6304
ENERGY: 900000 0.0000 0.0000 0.0000 0.0000 -11193.6141 1546.3477 0.0000 0.0000 1559.1295 -8088.1369 269.0637 -9647.2664 -8088.1111 270.0159 -229.2377 -232.5969 29480.6525 3.2954 3.4559
TCL: Running 1000000 steps at 300 kelvin.
TCL: Setting parameter langevinTemp to 300
TCL: Running for 1000000 steps
ETITLE: TS BOND ANGLE DIHED IMPRP ELECT VDW BOUNDARY MISC KINETIC TOTAL TEMP POTENTIAL TOTAL3 TEMPAVG PRESSURE GPRESSURE VOLUME PRESSAVG GPRESSAVG
ENERGY: 900000 0.0000 0.0000 0.0000 0.0000 -11193.6141 1546.3477 0.0000 0.0000 1558.3562 -8088.9102 268.9302 -9647.2664 -8085.8040 268.9302 -300.5642 -235.0154 29480.6525 -300.5642 -235.0154
ENERGY: 1100000 0.0000 0.0000 0.0000 0.0000 -10672.8506 1386.5145 0.0000 0.0000 1739.2076 -7547.1285 300.1403 -9286.3361 -7542.6505 299.9535 -662.6935 -603.4999 30345.4004 4.1197 4.1352
ENERGY: 1300000 0.0000 0.0000 0.0000 0.0000 -10549.8068 1417.0114 0.0000 0.0000 1688.0333 -7444.7621 291.3090 -9132.7954 -7442.6804 300.1037 13.6840 74.8628 30403.7284 2.7453 3.0003
ENERGY: 1500000 0.0000 0.0000 0.0000 0.0000 -10641.8434 1385.2268 0.0000 0.0000 1752.7534 -7503.8632 302.4779 -9256.6166 -7500.1371 299.8592 -378.7499 -320.3223 29888.0923 2.6928 2.7809
ENERGY: 1700000 0.0000 0.0000 0.0000 0.0000 -10674.2671 1474.8524 0.0000 0.0000 1727.4585 -7471.9562 298.1127 -9199.4147 -7468.2126 299.3472 286.8482 371.2954 30225.9772 1.7284 1.8266
ENERGY: 1900000 0.0000 0.0000 0.0000 0.0000 -10589.3180 1425.4429 0.0000 0.0000 1796.5698 -7367.3054 310.0395 -9163.8752 -7364.0161 299.8504 -134.3259 -46.4853 30445.6791 4.0384 4.0687
TCL: Exiting due to exit command.
