Info: SIMULATION PARAMETERS:
Info: TIMESTEP               2
Info: NUMBER OF STEPS        0
Info: STEPS PER CYCLE        10
Info: PERIODIC CELL BASIS 1  36.592 0 0
Info: PERIODIC CELL BASIS 2  0 35.779 0
Info: PERIODIC CELL BASIS 3  0 0 34.229
Info: PERIODIC CELL CENTER   0 0 0
Info: WRAPPING WATERS AROUND PERIODIC BOUNDARIES ON OUTPUT.
Info: WRAPPING ALL CLUSTERS AROUND PERIODIC BOUNDARIES ON OUTPUT.
Info: FIRST LDB TIMESTEP     50
Info: LAST LDB TIMESTEP     -1
Info: HOM BACKGROUND SCALING 1
Info: PME BACKGROUND SCALING 1
Info: MIN ATOMS PER PATCH    40
Info: EMPTY PATCH LOAD       40 ATOMS
Info: INITIAL TEMPERATURE    300
Info: CENTER OF MASS MOVING INITIALLY? NO
Info: DIELECTRIC             1
Info: EXCLUDE                SCALED ONE-FOUR
Info: 1-4 ELECTROSTATICS SCALED BY 0.833333
Info: MODIFIED 1-4 VDW PARAMETERS WILL BE USED
Info: DCD FILENAME           mobley_3269565_equil.dcd
Info: DCD FREQUENCY          100000
Info: DCD FIRST STEP         100000
Info: DCD FILE WILL CONTAIN UNIT CELL DATA
Info: XST FILENAME           mobley_3269565_equil.xst
Info: XST FREQUENCY          100000
Info: NO VELOCITY DCD OUTPUT
Info: NO FORCE DCD OUTPUT
Info: OUTPUT FILENAME        mobley_3269565_equil
Info: BINARY OUTPUT FILES WILL BE USED
Info: RESTART FILENAME       mobley_3269565_equil.restart
Info: RESTART FREQUENCY      100000
Info: BINARY RESTART FILES WILL BE USED
Info: CUTOFF                 9
Info: PAIRLIST DISTANCE      11
Info: PAIRLIST SHRINK RATE   0.01
Info: PAIRLIST GROW RATE     0.01
Info: PAIRLIST TRIGGER       0.3
Info: PAIRLISTS PER CYCLE    2
Info: PAIRLISTS ENABLED
Info: MARGIN                 8
Info: HYDROGEN GROUP CUTOFF  2.5
Info: PATCH DIMENSION        21.5
Info: ENERGY OUTPUT STEPS    100000
Info: ENERGY EVALUATION STEPS    100000
Info: OUTPUT ENERGY PRECISION 4
Info: CROSSTERM ENERGY INCLUDED IN DIHEDRAL
Info: TIMING OUTPUT STEPS    1000000
Info: PRESSURE OUTPUT STEPS  100000
Info: FIXED ATOMS ACTIVE
Info: LANGEVIN DYNAMICS ACTIVE
Info: LANGEVIN TEMPERATURE   30
Info: LANGEVIN USING BBK INTEGRATOR
Info: LANGEVIN DAMPING COEFFICIENT IS 1 INVERSE PS
Info: LANGEVIN DYNAMICS APPLIED TO HYDROGENS
Info: LANGEVIN PISTON PRESSURE CONTROL ACTIVE
Info:        TARGET PRESSURE IS 1.01325 BAR
Info:     OSCILLATION PERIOD IS 50 FS
Info:             DECAY TIME IS 25 FS
Info:     PISTON TEMPERATURE IS 300 K
Info:       PRESSURE CONTROL IS GROUP-BASED
Info:    INITIAL STRAIN RATE IS 0 0 0
Info:       CELL FLUCTUATION IS ISOTROPIC
Info: PARTICLE MESH EWALD (PME) ACTIVE
Info: PME TOLERANCE               1e-06
Info: PME EWALD COEFFICIENT       0.348832
Info: PME INTERPOLATION ORDER     4
Info: PME GRID DIMENSIONS         40 36 36
Info: PME MAXIMUM GRID SPACING    1
Info: FULL ELECTROSTATIC EVALUATION FREQUENCY      2
Info: USING VERLET I (r-RESPA) MTS SCHEME.
Info: C1 SPLITTING OF LONG RANGE ELECTROSTATICS
Info: PLACING ATOMS IN PATCHES BY HYDROGEN GROUPS
Info: RIGID BONDS TO HYDROGEN : ALL
Info:         ERROR TOLERANCE : 1e-08
Info:          MAX ITERATIONS : 100
Info: RIGID WATER USING SETTLE ALGORITHM
Info: RANDOM NUMBER SEED     1744090855
Info: USE HYDROGEN BONDS?    NO
Info: Using AMBER format force field!
Info: AMBER PARM FILE        mobley_3269565.prmtop
Info: COORDINATE PDB         mobley_3269565.pdb
Info: Exclusions will be read from PARM file!
Info: SCNB (VDW SCALING)     2
Info: USING ARITHMETIC MEAN TO COMBINE L-J SIGMA PARAMETERS
Info: BINARY COORDINATES     mobley_3269565_min.coor
Info: SUMMARY OF PARAMETERS:
Info: 6 BONDS
Info: 8 ANGLES
Info: 7 DIHEDRAL
Info: 0 IMPROPER
Info: 0 CROSSTERM
Info: 0 VDW
Info: 21 VDW_PAIRS
Info: 0 NBTHOLE_PAIRS
Info: STRUCTURE SUMMARY:
Info: 2997 ATOMS
Info: 2996 BONDS
Info: 25 ANGLES
Info: 32 DIHEDRALS
Info: 0 IMPROPERS
Info: 0 CROSSTERMS
Info: 3045 EXCLUSIONS
Info: 15 FIXED ATOMS
Info: 2992 RIGID BONDS
Info: 10 RIGID BONDS BETWEEN FIXED ATOMS
Info: 5964 DEGREES OF FREEDOM
Info: 999 HYDROGEN GROUPS
Info: 4 ATOMS IN LARGEST HYDROGEN GROUP
Info: 999 MIGRATION GROUPS
Info: 4 ATOMS IN LARGEST MIGRATION GROUP
Info: 5 HYDROGEN GROUPS WITH ALL ATOMS FIXED
Info: TOTAL MASS = 17982 amu
Info: TOTAL CHARGE = -0.000399977 e
Info: MASS DENSITY = 0.66633 g/cm^3
Info: ATOM DENSITY = 0.0668772 atoms/A^3
Info: ADDED 0 IMPLICIT EXCLUSIONS
Info: NONBONDED TABLE R-SQUARED SPACING: 0.0625
Info: NONBONDED TABLE SIZE: 705 POINTS
Info: REMOVING COM VELOCITY 0.154393 0.102114 -0.0441479
TCL: Running for 100000 steps
ETITLE: TS BOND ANGLE DIHED IMPRP ELECT VDW BOUNDARY MISC KINETIC TOTAL TEMP POTENTIAL TOTAL3 TEMPAVG PRESSURE GPRESSURE VOLUME PRESSAVG GPRESSAVG
ENERGY: 0 0.0000 0.0000 0.0000 0.0000 -13844.9202 2431.6750 0.0000 0.0000 1797.5225 -9615.7226 303.3382 -11413.2452 -9615.3538 303.3382 434.7389 474.5677 44813.4683 434.7389 474.5677
ENERGY: 100000 0.0000 0.0000 0.0000 0.0000 -14462.7768 2511.6186 0.0000 0.0000 178.3999 -11772.7583 30.1056 -11951.1582 -11772.2584 30.9768 92.4639 148.9625 29043.3646 5.4301 5.4649
TCL: Running 100000 steps at 60 kelvin.
TCL: Setting parameter langevinTemp to 60
TCL: Running for 100000 steps
ETITLE: TS BOND ANGLE DIHED IMPRP ELECT VDW BOUNDARY MISC KINETIC TOTAL TEMP POTENTIAL TOTAL3 TEMPAVG PRESSURE GPRESSURE VOLUME PRESSAVG GPRESSAVG
ENERGY: 100000 0.0000 0.0000 0.0000 0.0000 -14462.7768 2511.6186 0.0000 0.0000 178.3132 -11772.8451 30.0910 -11951.1582 -11772.4861 30.0910 103.2084 149.2425 29043.3646 103.2084 149.2425
ENERGY: 200000 0.0000 0.0000 0.0000 0.0000 -14311.3739 2451.3330 0.0000 0.0000 355.9809 -11504.0599 60.0730 -11860.0408 -11503.4711 59.9669 59.9864 112.0611 28930.4835 2.9100 2.8317
TCL: Running 100000 steps at 90 kelvin.
TCL: Setting parameter langevinTemp to 90
TCL: Running for 100000 steps
ETITLE: TS BOND ANGLE DIHED IMPRP ELECT VDW BOUNDARY MISC KINETIC TOTAL TEMP POTENTIAL TOTAL3 TEMPAVG PRESSURE GPRESSURE VOLUME PRESSAVG GPRESSAVG
ENERGY: 200000 0.0000 0.0000 0.0000 0.0000 -14311.3739 2451.3330 0.0000 0.0000 355.8020 -11504.2388 60.0428 -11860.0408 -11503.4221 60.0428 64.0067 111.6008 28930.4835 64.0067 111.6008
ENERGY: 300000 0.0000 0.0000 0.0000 0.0000 -14289.8559 2498.2378 0.0000 0.0000 523.3603 -11268.2578 88.3189 -11791.6181 -11267.0808 89.8749 518.9668 582.9123 28938.1949 3.7531 3.8163
TCL: Running 100000 steps at 120 kelvin.
TCL: Setting parameter langevinTemp to 120
TCL: Running for 100000 steps
ETITLE: TS BOND ANGLE DIHED IMPRP ELECT VDW BOUNDARY MISC KINETIC TOTAL TEMP POTENTIAL TOTAL3 TEMPAVG PRESSURE GPRESSURE VOLUME PRESSAVG GPRESSAVG
ENERGY: 300000 0.0000 0.0000 0.0000 0.0000 -14289.8559 2498.2378 0.0000 0.0000 523.0983 -11268.5199 88.2747 -11791.6181 -11267.5943 88.2747 537.1754 583.0168 28938.1949 537.1754 583.0168
ENERGY: 400000 0.0000 0.0000 0.0000 0.0000 -13978.4029 2346.6332 0.0000 0.0000 696.9996 -10934.7700 117.6211 -11631.7696 -10933.0161 119.8999 -166.3253 -91.7256 29020.2322 4.9972 4.9691
TCL: Running 100000 steps at 150 kelvin.
TCL: Setting parameter langevinTemp to 150
TCL: Running for 100000 steps
ETITLE: TS BOND ANGLE DIHED IMPRP ELECT VDW BOUNDARY MISC KINETIC TOTAL TEMP POTENTIAL TOTAL3 TEMPAVG PRESSURE GPRESSURE VOLUME PRESSAVG GPRESSAVG
ENERGY: 400000 0.0000 0.0000 0.0000 0.0000 -13978.4029 2346.6332 0.0000 0.0000 696.6542 -10935.1154 117.5628 -11631.7696 -10933.8551 117.5628 -146.2411 -91.9993 29020.2322 -146.2411 -91.9993
ENERGY: 500000 0.0000 0.0000 0.0000 0.0000 -13733.9093 2288.2270 0.0000 0.0000 873.0915 -10572.5907 147.3372 -11445.6823 -10569.9618 149.9471 -7.5179 21.9778 29417.4117 4.1254 4.2259
TCL: Running 100000 steps at 180 kelvin.
TCL: Setting parameter langevinTemp to 180
TCL: Running for 100000 steps
ETITLE: TS BOND ANGLE DIHED IMPRP ELECT VDW BOUNDARY MISC KINETIC TOTAL TEMP POTENTIAL TOTAL3 TEMPAVG PRESSURE GPRESSURE VOLUME PRESSAVG GPRESSAVG
ENERGY: 500000 0.0000 0.0000 0.0000 0.0000 -13733.9093 2288.2270 0.0000 0.0000 872.6291 -10573.0531 147.2592 -11445.6823 -10571.2236 147.2592 -28.1179 23.0172 29417.4117 -28.1179 23.0172
ENERGY: 600000 0.0000 0.0000 0.0000 0.0000 -13392.7045 2212.3747 0.0000 0.0000 1086.8900 -10093.4398 183.4165 -11180.3298 -10091.0772 179.8608 412.4806 480.0607 29345.2557 5.6648 5.6997
TCL: Running 100000 steps at 210 kelvin.
TCL: Setting parameter langevinTemp to 210
TCL: Running for 100000 steps
ETITLE: TS BOND ANGLE DIHED IMPRP ELECT VDW BOUNDARY MISC KINETIC TOTAL TEMP POTENTIAL TOTAL3 TEMPAVG PRESSURE GPRESSURE VOLUME PRESSAVG GPRESSAVG
ENERGY: 600000 0.0000 0.0000 0.0000 0.0000 -13392.7045 2212.3747 0.0000 0.0000 1086.3495 -10093.9803 183.3253 -11180.3298 -10092.1904 183.3253 401.1061 480.5313 29345.2557 401.1061 480.5313
ENERGY: 700000 0.0000 0.0000 0.0000 0.0000 -12568.2521 1908.6194 0.0000 0.0000 1219.3607 -9440.2719 205.7714 -10659.6327 -9436.2212 209.4598 35.9857 123.7311 29246.4707 3.5801 3.5508
TCL: Running 100000 steps at 240 kelvin.
TCL: Setting parameter langevinTemp to 240
TCL: Running for 100000 steps
ETITLE: TS BOND ANGLE DIHED IMPRP ELECT VDW BOUNDARY MISC KINETIC TOTAL TEMP POTENTIAL TOTAL3 TEMPAVG PRESSURE GPRESSURE VOLUME PRESSAVG GPRESSAVG
ENERGY: 700000 0.0000 0.0000 0.0000 0.0000 -12568.2521 1908.6194 0.0000 0.0000 1218.7500 -9440.8827 205.6683 -10659.6327 -9438.9980 205.6683 62.3671 125.5636 29246.4707 62.3671 125.5636
ENERGY: 800000 0.0000 0.0000 0.0000 0.0000 -11961.8023 1743.1468 0.0000 0.0000 1404.7832 -8813.8723 237.0621 -10218.6555 -8813.1440 240.5761 -7.4840 138.5889 29386.6724 2.7711 2.6541
TCL: Running 100000 steps at 270 kelvin.
TCL: Setting parameter langevinTemp to 270
TCL: Running for 100000 steps
ETITLE: TS BOND ANGLE DIHED IMPRP ELECT VDW BOUNDARY MISC KINETIC TOTAL TEMP POTENTIAL TOTAL3 TEMPAVG PRESSURE GPRESSURE VOLUME PRESSAVG GPRESSAVG
ENERGY: 800000 0.0000 0.0000 0.0000 0.0000 -11961.8023 1743.1468 0.0000 0.0000 1404.0571 -8814.5983 236.9395 -10218.6555 -8812.1723 236.9395 56.0554 137.5966 29386.6724 56.0554 137.5966
ENERGY: 900000 0.0000 0.0000 0.0000 0.0000 -11463.9925 1661.6600 0.0000 0.0000 1628.8422 -8173.4903 274.8728 -9802.3325 -8170.0563 270.0410 428.8102 549.9541 30278.5808 3.1954 3.1287
TCL: Running 1000000 steps at 300 kelvin.
TCL: Setting parameter langevinTemp to 300
TCL: Running for 1000000 steps
ETITLE: TS BOND ANGLE DIHED IMPRP ELECT VDW BOUNDARY MISC KINETIC TOTAL TEMP POTENTIAL TOTAL3 TEMPAVG PRESSURE GPRESSURE VOLUME PRESSAVG GPRESSAVG
ENERGY: 900000 0.0000 0.0000 0.0000 0.0000 -11463.9925 1661.6600 0.0000 0.0000 1628.0620 -8174.2705 274.7411 -9802.3325 -8171.9867 274.7411 451.1976 549.1198 30278.5808 451.1976 549.1198
ENERGY: 1100000 0.0000 0.0000 0.0000 0.0000 -10830.7909 1484.3386 0.0000 0.0000 1743.2119 -7603.2404 294.1731 -9346.4523 -7599.0904 300.1342 416.0454 481.3784 30858.8776 3.0028 2.8925
ENERGY: 1300000 0.0000 0.0000 0.0000 0.0000 -10838.8695 1504.9107 0.0000 0.0000 1771.3073 -7562.6514 298.9143 -9333.9587 -7557.0308 300.1311 595.6423 704.5353 30656.2780 3.5970 3.5816
ENERGY: 1500000 0.0000 0.0000 0.0000 0.0000 -10821.4594 1393.4267 0.0000 0.0000 1784.5889 -7643.4438 301.1556 -9428.0327 -7640.7112 300.4423 -428.9747 -391.9082 30762.2252 1.5217 1.5367
ENERGY: 1700000 0.0000 0.0000 0.0000 0.0000 -10930.8949 1429.4674 0.0000 0.0000 1780.0254 -7721.4021 300.3855 -9501.4275 -7717.1114 300.1776 -604.9855 -497.6625 30992.5184 2.6211 2.7749
ENERGY: 1900000 0.0000 0.0000 0.0000 0.0000 -10824.0725 1434.2839 0.0000 0.0000 1767.7024 -7622.0863 298.3059 -9389.7887 -7618.7060 300.6040 100.9870 176.0423 30683.8053 3.1234 3.1902
TCL: Exiting due to exit command.
