Info: SIMULATION PARAMETERS:
Info: TIMESTEP               2
Info: NUMBER OF STEPS        0
Info: STEPS PER CYCLE        10
Info: PERIODIC CELL BASIS 1  37.435 0 0
Info: PERIODIC CELL BASIS 2  0 35.779 0
Info: PERIODIC CELL BASIS 3  0 0 31.855
Info: PERIODIC CELL CENTER   0 0 0
Info: WRAPPING WATERS AROUND PERIODIC BOUNDARIES ON OUTPUT.
Info: WRAPPING ALL CLUSTERS AROUND PERIODIC BOUNDARIES ON OUTPUT.
Info: FIRST LDB TIMESTEP     50
Info: LAST LDB TIMESTEP     -1
Info: HOM BACKGROUND SCALING 1
Info: PME BACKGROUND SCALING 1
Info: MIN ATOMS PER PATCH    40
Info: EMPTY PATCH LOAD       40 ATOMS
Info: INITIAL TEMPERATURE    300
Info: CENTER OF MASS MOVING INITIALLY? NO
Info: DIELECTRIC             1
Info: EXCLUDE                SCALED ONE-FOUR
Info: 1-4 ELECTROSTATICS SCALED BY 0.833333
Info: MODIFIED 1-4 VDW PARAMETERS WILL BE USED
Info: DCD FILENAME           mobley_7774695_equil.dcd
Info: DCD FREQUENCY          100000
Info: DCD FIRST STEP         100000
Info: DCD FILE WILL CONTAIN UNIT CELL DATA
Info: XST FILENAME           mobley_7774695_equil.xst
Info: XST FREQUENCY          100000
Info: NO VELOCITY DCD OUTPUT
Info: NO FORCE DCD OUTPUT
Info: OUTPUT FILENAME        mobley_7774695_equil
Info: BINARY OUTPUT FILES WILL BE USED
Info: RESTART FILENAME       mobley_7774695_equil.restart
Info: RESTART FREQUENCY      100000
Info: BINARY RESTART FILES WILL BE USED
Info: CUTOFF                 9
Info: PAIRLIST DISTANCE      11
Info: PAIRLIST SHRINK RATE   0.01
Info: PAIRLIST GROW RATE     0.01
Info: PAIRLIST TRIGGER       0.3
Info: PAIRLISTS PER CYCLE    2
Info: PAIRLISTS ENABLED
Info: MARGIN                 8
Info: HYDROGEN GROUP CUTOFF  2.5
Info: PATCH DIMENSION        21.5
Info: ENERGY OUTPUT STEPS    100000
Info: ENERGY EVALUATION STEPS    100000
Info: OUTPUT ENERGY PRECISION 4
Info: CROSSTERM ENERGY INCLUDED IN DIHEDRAL
Info: TIMING OUTPUT STEPS    1000000
Info: PRESSURE OUTPUT STEPS  100000
Info: FIXED ATOMS ACTIVE
Info: LANGEVIN DYNAMICS ACTIVE
Info: LANGEVIN TEMPERATURE   30
Info: LANGEVIN USING BBK INTEGRATOR
Info: LANGEVIN DAMPING COEFFICIENT IS 1 INVERSE PS
Info: LANGEVIN DYNAMICS APPLIED TO HYDROGENS
Info: LANGEVIN PISTON PRESSURE CONTROL ACTIVE
Info:        TARGET PRESSURE IS 1.01325 BAR
Info:     OSCILLATION PERIOD IS 50 FS
Info:             DECAY TIME IS 25 FS
Info:     PISTON TEMPERATURE IS 300 K
Info:       PRESSURE CONTROL IS GROUP-BASED
Info:    INITIAL STRAIN RATE IS 0 0 0
Info:       CELL FLUCTUATION IS ISOTROPIC
Info: PARTICLE MESH EWALD (PME) ACTIVE
Info: PME TOLERANCE               1e-06
Info: PME EWALD COEFFICIENT       0.348832
Info: PME INTERPOLATION ORDER     4
Info: PME GRID DIMENSIONS         40 36 32
Info: PME MAXIMUM GRID SPACING    1
Info: FULL ELECTROSTATIC EVALUATION FREQUENCY      2
Info: USING VERLET I (r-RESPA) MTS SCHEME.
Info: C1 SPLITTING OF LONG RANGE ELECTROSTATICS
Info: PLACING ATOMS IN PATCHES BY HYDROGEN GROUPS
Info: RIGID BONDS TO HYDROGEN : ALL
Info:         ERROR TOLERANCE : 1e-08
Info:          MAX ITERATIONS : 100
Info: RIGID WATER USING SETTLE ALGORITHM
Info: RANDOM NUMBER SEED     1744087963
Info: USE HYDROGEN BONDS?    NO
Info: Using AMBER format force field!
Info: AMBER PARM FILE        mobley_7774695.prmtop
Info: COORDINATE PDB         mobley_7774695.pdb
Info: Exclusions will be read from PARM file!
Info: SCNB (VDW SCALING)     2
Info: USING ARITHMETIC MEAN TO COMBINE L-J SIGMA PARAMETERS
Info: BINARY COORDINATES     mobley_7774695_min.coor
Info: SUMMARY OF PARAMETERS:
Info: 8 BONDS
Info: 8 ANGLES
Info:   8 HARMONIC
Info:   0 COSINE-BASED
Info: 4 DIHEDRAL
Info: 0 IMPROPER
Info: 0 CROSSTERM
Info: 0 VDW
Info: 36 VDW_PAIRS
Info: 0 NBTHOLE_PAIRS
Info: STRUCTURE SUMMARY:
Info: 2963 ATOMS
Info: 2963 BONDS
Info: 27 ANGLES
Info: 41 DIHEDRALS
Info: 0 IMPROPERS
Info: 0 CROSSTERMS
Info: 3021 EXCLUSIONS
Info: 17 FIXED ATOMS
Info: 2955 RIGID BONDS
Info: 9 RIGID BONDS BETWEEN FIXED ATOMS
Info: 5892 DEGREES OF FREEDOM
Info: 990 HYDROGEN GROUPS
Info: 4 ATOMS IN LARGEST HYDROGEN GROUP
Info: 990 MIGRATION GROUPS
Info: 4 ATOMS IN LARGEST MIGRATION GROUP
Info: 8 HYDROGEN GROUPS WITH ALL ATOMS FIXED
Info: TOTAL MASS = 17798.9 amu
Info: TOTAL CHARGE = -0.000199948 e
Info: MASS DENSITY = 0.692736 g/cm^3
Info: ATOM DENSITY = 0.0694461 atoms/A^3
Info: ADDED 0 IMPLICIT EXCLUSIONS
Info: NONBONDED TABLE R-SQUARED SPACING: 0.0625
Info: NONBONDED TABLE SIZE: 705 POINTS
Info: REMOVING COM VELOCITY -0.115372 -0.0220037 0.0605816
TCL: Running for 100000 steps
ETITLE: TS BOND ANGLE DIHED IMPRP ELECT VDW BOUNDARY MISC KINETIC TOTAL TEMP POTENTIAL TOTAL3 TEMPAVG PRESSURE GPRESSURE VOLUME PRESSAVG GPRESSAVG
ENERGY: 0 0.0000 0.0000 0.0000 0.0000 -13801.9997 2398.6191 0.0000 0.0000 1731.6134 -9671.7671 295.7867 -11403.3805 -9671.4197 295.7867 253.4762 279.4053 42666.1686 253.4762 279.4053
ENERGY: 100000 0.0000 0.0000 0.0000 0.0000 -14420.1495 2543.2793 0.0000 0.0000 180.8993 -11695.9710 30.9004 -11876.8703 -11695.5531 30.8674 349.4686 394.1565 29171.1541 3.6829 3.7363
TCL: Running 100000 steps at 60 kelvin.
TCL: Setting parameter langevinTemp to 60
TCL: Running for 100000 steps
ETITLE: TS BOND ANGLE DIHED IMPRP ELECT VDW BOUNDARY MISC KINETIC TOTAL TEMP POTENTIAL TOTAL3 TEMPAVG PRESSURE GPRESSURE VOLUME PRESSAVG GPRESSAVG
ENERGY: 100000 0.0000 0.0000 0.0000 0.0000 -14420.1495 2543.2793 0.0000 0.0000 180.8106 -11696.0597 30.8853 -11876.8703 -11695.7651 30.8853 333.5307 394.1013 29171.1541 333.5307 394.1013
ENERGY: 200000 0.0000 0.0000 0.0000 0.0000 -14222.4797 2414.9018 0.0000 0.0000 350.5604 -11457.0175 59.8812 -11807.5779 -11455.5740 59.9541 -398.7710 -348.4076 29064.1752 3.7345 3.7190
TCL: Running 100000 steps at 90 kelvin.
TCL: Setting parameter langevinTemp to 90
TCL: Running for 100000 steps
ETITLE: TS BOND ANGLE DIHED IMPRP ELECT VDW BOUNDARY MISC KINETIC TOTAL TEMP POTENTIAL TOTAL3 TEMPAVG PRESSURE GPRESSURE VOLUME PRESSAVG GPRESSAVG
ENERGY: 200000 0.0000 0.0000 0.0000 0.0000 -14222.4797 2414.9018 0.0000 0.0000 350.3863 -11457.1916 59.8515 -11807.5779 -11456.4818 59.8515 -410.6574 -347.9403 29064.1752 -410.6574 -347.9403
ENERGY: 300000 0.0000 0.0000 0.0000 0.0000 -13977.4579 2262.6221 0.0000 0.0000 528.2955 -11186.5403 90.2411 -11714.8359 -11184.9338 90.2383 -1322.0564 -1281.3816 29263.0192 4.7793 4.6850
TCL: Running 100000 steps at 120 kelvin.
TCL: Setting parameter langevinTemp to 120
TCL: Running for 100000 steps
ETITLE: TS BOND ANGLE DIHED IMPRP ELECT VDW BOUNDARY MISC KINETIC TOTAL TEMP POTENTIAL TOTAL3 TEMPAVG PRESSURE GPRESSURE VOLUME PRESSAVG GPRESSAVG
ENERGY: 300000 0.0000 0.0000 0.0000 0.0000 -13977.4579 2262.6221 0.0000 0.0000 528.0305 -11186.8053 90.1959 -11714.8359 -11185.4347 90.1959 -1335.4222 -1281.4090 29263.0192 -1335.4222 -1281.4090
ENERGY: 400000 0.0000 0.0000 0.0000 0.0000 -13861.3328 2297.2230 0.0000 0.0000 701.0654 -10863.0445 119.7529 -11564.1098 -10859.5480 119.9622 -492.0076 -432.7188 29278.8073 3.3761 3.2871
TCL: Running 100000 steps at 150 kelvin.
TCL: Setting parameter langevinTemp to 150
TCL: Running for 100000 steps
ETITLE: TS BOND ANGLE DIHED IMPRP ELECT VDW BOUNDARY MISC KINETIC TOTAL TEMP POTENTIAL TOTAL3 TEMPAVG PRESSURE GPRESSURE VOLUME PRESSAVG GPRESSAVG
ENERGY: 400000 0.0000 0.0000 0.0000 0.0000 -13861.3328 2297.2230 0.0000 0.0000 700.7147 -10863.3951 119.6930 -11564.1098 -10862.2279 119.6930 -490.3494 -430.9103 29278.8073 -490.3494 -430.9103
ENERGY: 500000 0.0000 0.0000 0.0000 0.0000 -13615.6400 2216.9181 0.0000 0.0000 895.4333 -10503.2886 152.9540 -11398.7219 -10501.2979 150.2855 -498.7582 -437.2100 29105.1545 4.6726 4.6561
TCL: Running 100000 steps at 180 kelvin.
TCL: Setting parameter langevinTemp to 180
TCL: Running for 100000 steps
ETITLE: TS BOND ANGLE DIHED IMPRP ELECT VDW BOUNDARY MISC KINETIC TOTAL TEMP POTENTIAL TOTAL3 TEMPAVG PRESSURE GPRESSURE VOLUME PRESSAVG GPRESSAVG
ENERGY: 500000 0.0000 0.0000 0.0000 0.0000 -13615.6400 2216.9181 0.0000 0.0000 894.9880 -10503.7339 152.8780 -11398.7219 -10502.0426 152.8780 -484.0682 -437.1410 29105.1545 -484.0682 -437.1410
ENERGY: 600000 0.0000 0.0000 0.0000 0.0000 -13221.2677 2112.4504 0.0000 0.0000 1048.2875 -10060.5298 179.0639 -11108.8173 -10056.4045 179.6249 -304.9694 -274.7770 29268.2220 3.1157 2.9691
TCL: Running 100000 steps at 210 kelvin.
TCL: Setting parameter langevinTemp to 210
TCL: Running for 100000 steps
ETITLE: TS BOND ANGLE DIHED IMPRP ELECT VDW BOUNDARY MISC KINETIC TOTAL TEMP POTENTIAL TOTAL3 TEMPAVG PRESSURE GPRESSURE VOLUME PRESSAVG GPRESSAVG
ENERGY: 600000 0.0000 0.0000 0.0000 0.0000 -13221.2677 2112.4504 0.0000 0.0000 1047.7427 -10061.0746 178.9708 -11108.8173 -10058.9565 178.9708 -333.1306 -274.2116 29268.2220 -333.1306 -274.2116
ENERGY: 700000 0.0000 0.0000 0.0000 0.0000 -12471.3897 1868.3363 0.0000 0.0000 1232.1459 -9370.9074 210.4698 -10603.0534 -9367.9741 209.8009 -93.4084 -6.5327 28939.2269 3.8120 3.7231
TCL: Running 100000 steps at 240 kelvin.
TCL: Setting parameter langevinTemp to 240
TCL: Running for 100000 steps
ETITLE: TS BOND ANGLE DIHED IMPRP ELECT VDW BOUNDARY MISC KINETIC TOTAL TEMP POTENTIAL TOTAL3 TEMPAVG PRESSURE GPRESSURE VOLUME PRESSAVG GPRESSAVG
ENERGY: 700000 0.0000 0.0000 0.0000 0.0000 -12471.3897 1868.3363 0.0000 0.0000 1231.5286 -9371.5248 210.3644 -10603.0534 -9369.1902 210.3644 -93.4263 -4.9971 28939.2269 -93.4263 -4.9971
ENERGY: 800000 0.0000 0.0000 0.0000 0.0000 -11831.7730 1665.0733 0.0000 0.0000 1411.2874 -8755.4123 241.0700 -10166.6997 -8754.6645 239.5746 -518.2096 -441.5177 29694.4832 2.7313 2.5446
TCL: Running 100000 steps at 270 kelvin.
TCL: Setting parameter langevinTemp to 270
TCL: Running for 100000 steps
ETITLE: TS BOND ANGLE DIHED IMPRP ELECT VDW BOUNDARY MISC KINETIC TOTAL TEMP POTENTIAL TOTAL3 TEMPAVG PRESSURE GPRESSURE VOLUME PRESSAVG GPRESSAVG
ENERGY: 800000 0.0000 0.0000 0.0000 0.0000 -11831.7730 1665.0733 0.0000 0.0000 1410.5834 -8756.1163 240.9497 -10166.6997 -8753.9316 240.9497 -524.9956 -443.2699 29694.4832 -524.9956 -443.2699
ENERGY: 900000 0.0000 0.0000 0.0000 0.0000 -11246.2911 1478.9781 0.0000 0.0000 1555.6601 -8211.6529 265.7311 -9767.3130 -8207.3147 269.7455 -741.8877 -602.1760 29595.5659 3.2495 3.3022
TCL: Running 1000000 steps at 300 kelvin.
TCL: Setting parameter langevinTemp to 300
TCL: Running for 1000000 steps
ETITLE: TS BOND ANGLE DIHED IMPRP ELECT VDW BOUNDARY MISC KINETIC TOTAL TEMP POTENTIAL TOTAL3 TEMPAVG PRESSURE GPRESSURE VOLUME PRESSAVG GPRESSAVG
ENERGY: 900000 0.0000 0.0000 0.0000 0.0000 -11246.2911 1478.9781 0.0000 0.0000 1554.8776 -8212.4354 265.5974 -9767.3130 -8209.2907 265.5974 -706.7463 -601.8883 29595.5659 -706.7463 -601.8883
ENERGY: 1100000 0.0000 0.0000 0.0000 0.0000 -10679.4588 1370.0235 0.0000 0.0000 1759.8716 -7549.5636 300.6136 -9309.4352 -7545.5699 299.8456 -361.0320 -311.7484 30649.1626 1.7858 1.8322
ENERGY: 1300000 0.0000 0.0000 0.0000 0.0000 -10892.0394 1427.5115 0.0000 0.0000 1744.6437 -7719.8842 298.0124 -9464.5279 -7717.3289 300.4863 -336.9700 -262.6106 30312.0677 2.1137 2.1429
ENERGY: 1500000 0.0000 0.0000 0.0000 0.0000 -10833.0208 1405.5529 0.0000 0.0000 1762.6018 -7664.8661 301.0800 -9427.4679 -7661.1755 300.3157 -516.1541 -482.3839 30626.1105 2.7375 2.7563
ENERGY: 1700000 0.0000 0.0000 0.0000 0.0000 -10833.9707 1438.0876 0.0000 0.0000 1750.7076 -7645.1756 299.0482 -9395.8831 -7640.9791 300.0352 -235.7041 -182.1782 30634.5808 2.7955 2.6698
ENERGY: 1900000 0.0000 0.0000 0.0000 0.0000 -10744.0313 1372.2867 0.0000 0.0000 1747.7112 -7624.0334 298.5364 -9371.7446 -7621.2883 299.8423 -671.7332 -633.9084 30745.7576 2.5974 2.5135
TCL: Exiting due to exit command.
