Info: SIMULATION PARAMETERS:
Info: TIMESTEP               2
Info: NUMBER OF STEPS        0
Info: STEPS PER CYCLE        10
Info: PERIODIC CELL BASIS 1  36.592 0 0
Info: PERIODIC CELL BASIS 2  0 34.26 0
Info: PERIODIC CELL BASIS 3  0 0 34.68
Info: PERIODIC CELL CENTER   0 0 0
Info: WRAPPING WATERS AROUND PERIODIC BOUNDARIES ON OUTPUT.
Info: WRAPPING ALL CLUSTERS AROUND PERIODIC BOUNDARIES ON OUTPUT.
Info: FIRST LDB TIMESTEP     50
Info: LAST LDB TIMESTEP     -1
Info: HOM BACKGROUND SCALING 1
Info: PME BACKGROUND SCALING 1
Info: MIN ATOMS PER PATCH    40
Info: EMPTY PATCH LOAD       40 ATOMS
Info: INITIAL TEMPERATURE    300
Info: CENTER OF MASS MOVING INITIALLY? NO
Info: DIELECTRIC             1
Info: EXCLUDE                SCALED ONE-FOUR
Info: 1-4 ELECTROSTATICS SCALED BY 0.833333
Info: MODIFIED 1-4 VDW PARAMETERS WILL BE USED
Info: DCD FILENAME           mobley_5692472_equil.dcd
Info: DCD FREQUENCY          100000
Info: DCD FIRST STEP         100000
Info: DCD FILE WILL CONTAIN UNIT CELL DATA
Info: XST FILENAME           mobley_5692472_equil.xst
Info: XST FREQUENCY          100000
Info: NO VELOCITY DCD OUTPUT
Info: NO FORCE DCD OUTPUT
Info: OUTPUT FILENAME        mobley_5692472_equil
Info: BINARY OUTPUT FILES WILL BE USED
Info: RESTART FILENAME       mobley_5692472_equil.restart
Info: RESTART FREQUENCY      100000
Info: BINARY RESTART FILES WILL BE USED
Info: CUTOFF                 9
Info: PAIRLIST DISTANCE      11
Info: PAIRLIST SHRINK RATE   0.01
Info: PAIRLIST GROW RATE     0.01
Info: PAIRLIST TRIGGER       0.3
Info: PAIRLISTS PER CYCLE    2
Info: PAIRLISTS ENABLED
Info: MARGIN                 8
Info: HYDROGEN GROUP CUTOFF  2.5
Info: PATCH DIMENSION        21.5
Info: ENERGY OUTPUT STEPS    100000
Info: ENERGY EVALUATION STEPS    100000
Info: OUTPUT ENERGY PRECISION 4
Info: CROSSTERM ENERGY INCLUDED IN DIHEDRAL
Info: TIMING OUTPUT STEPS    1000000
Info: PRESSURE OUTPUT STEPS  100000
Info: FIXED ATOMS ACTIVE
Info: LANGEVIN DYNAMICS ACTIVE
Info: LANGEVIN TEMPERATURE   30
Info: LANGEVIN USING BBK INTEGRATOR
Info: LANGEVIN DAMPING COEFFICIENT IS 1 INVERSE PS
Info: LANGEVIN DYNAMICS APPLIED TO HYDROGENS
Info: LANGEVIN PISTON PRESSURE CONTROL ACTIVE
Info:        TARGET PRESSURE IS 1.01325 BAR
Info:     OSCILLATION PERIOD IS 50 FS
Info:             DECAY TIME IS 25 FS
Info:     PISTON TEMPERATURE IS 300 K
Info:       PRESSURE CONTROL IS GROUP-BASED
Info:    INITIAL STRAIN RATE IS 0 0 0
Info:       CELL FLUCTUATION IS ISOTROPIC
Info: PARTICLE MESH EWALD (PME) ACTIVE
Info: PME TOLERANCE               1e-06
Info: PME EWALD COEFFICIENT       0.348832
Info: PME INTERPOLATION ORDER     4
Info: PME GRID DIMENSIONS         40 36 36
Info: PME MAXIMUM GRID SPACING    1
Info: FULL ELECTROSTATIC EVALUATION FREQUENCY      2
Info: USING VERLET I (r-RESPA) MTS SCHEME.
Info: C1 SPLITTING OF LONG RANGE ELECTROSTATICS
Info: PLACING ATOMS IN PATCHES BY HYDROGEN GROUPS
Info: RIGID BONDS TO HYDROGEN : ALL
Info:         ERROR TOLERANCE : 1e-08
Info:          MAX ITERATIONS : 100
Info: RIGID WATER USING SETTLE ALGORITHM
Info: RANDOM NUMBER SEED     1743683636
Info: USE HYDROGEN BONDS?    NO
Info: Using AMBER format force field!
Info: AMBER PARM FILE        mobley_5692472.prmtop
Info: COORDINATE PDB         mobley_5692472.pdb
Info: Exclusions will be read from PARM file!
Info: SCNB (VDW SCALING)     2
Info: USING ARITHMETIC MEAN TO COMBINE L-J SIGMA PARAMETERS
Info: BINARY COORDINATES     mobley_5692472_min.coor
Info: SUMMARY OF PARAMETERS:
Info: 5 BONDS
Info: 4 ANGLES
Info:   4 HARMONIC
Info:   0 COSINE-BASED
Info: 1 DIHEDRAL
Info: 0 IMPROPER
Info: 0 CROSSTERM
Info: 0 VDW
Info: 21 VDW_PAIRS
Info: 0 NBTHOLE_PAIRS
Info: STRUCTURE SUMMARY:
Info: 2962 ATOMS
Info: 2961 BONDS
Info: 15 ANGLES
Info: 12 DIHEDRALS
Info: 0 IMPROPERS
Info: 0 CROSSTERMS
Info: 2988 EXCLUSIONS
Info: 10 FIXED ATOMS
Info: 2959 RIGID BONDS
Info: 7 RIGID BONDS BETWEEN FIXED ATOMS
Info: 5904 DEGREES OF FREEDOM
Info: 987 HYDROGEN GROUPS
Info: 4 ATOMS IN LARGEST HYDROGEN GROUP
Info: 987 MIGRATION GROUPS
Info: 4 ATOMS IN LARGEST MIGRATION GROUP
Info: 3 HYDROGEN GROUPS WITH ALL ATOMS FIXED
Info: TOTAL MASS = 17772.8 amu
Info: TOTAL CHARGE = 7.45058e-09 e
Info: MASS DENSITY = 0.678833 g/cm^3
Info: ATOM DENSITY = 0.0681291 atoms/A^3
Info: ADDED 0 IMPLICIT EXCLUSIONS
Info: NONBONDED TABLE R-SQUARED SPACING: 0.0625
Info: NONBONDED TABLE SIZE: 705 POINTS
Info: REMOVING COM VELOCITY -0.128195 0.0968812 0.185226
TCL: Running for 100000 steps
ETITLE: TS BOND ANGLE DIHED IMPRP ELECT VDW BOUNDARY MISC KINETIC TOTAL TEMP POTENTIAL TOTAL3 TEMPAVG PRESSURE GPRESSURE VOLUME PRESSAVG GPRESSAVG
ENERGY: 0 0.0000 0.0000 0.0000 0.0000 -13745.0155 2396.9975 0.0000 0.0000 1723.0896 -9624.9284 293.7324 -11348.0180 -9624.5931 293.7324 358.5526 390.1040 43476.3018 358.5526 390.1040
ENERGY: 100000 0.0000 0.0000 0.0000 0.0000 -14290.5218 2469.0902 0.0000 0.0000 174.6963 -11646.7352 29.7802 -11821.4316 -11646.0636 30.8112 -279.5948 -229.3300 29890.2223 3.5446 3.5841
TCL: Running 100000 steps at 60 kelvin.
TCL: Setting parameter langevinTemp to 60
TCL: Running for 100000 steps
ETITLE: TS BOND ANGLE DIHED IMPRP ELECT VDW BOUNDARY MISC KINETIC TOTAL TEMP POTENTIAL TOTAL3 TEMPAVG PRESSURE GPRESSURE VOLUME PRESSAVG GPRESSAVG
ENERGY: 100000 0.0000 0.0000 0.0000 0.0000 -14290.5218 2469.0902 0.0000 0.0000 174.6067 -11646.8249 29.7649 -11821.4316 -11646.4976 29.7649 -277.3642 -228.9906 29890.2223 -277.3642 -228.9906
ENERGY: 200000 0.0000 0.0000 0.0000 0.0000 -14097.4522 2358.0553 0.0000 0.0000 350.1769 -11389.2200 59.6941 -11739.3970 -11388.2510 59.9860 -769.8084 -701.5844 29744.3752 4.7179 4.6100
TCL: Running 100000 steps at 90 kelvin.
TCL: Setting parameter langevinTemp to 90
TCL: Running for 100000 steps
ETITLE: TS BOND ANGLE DIHED IMPRP ELECT VDW BOUNDARY MISC KINETIC TOTAL TEMP POTENTIAL TOTAL3 TEMPAVG PRESSURE GPRESSURE VOLUME PRESSAVG GPRESSAVG
ENERGY: 200000 0.0000 0.0000 0.0000 0.0000 -14097.4522 2358.0553 0.0000 0.0000 350.0010 -11389.3960 59.6641 -11739.3970 -11388.6218 59.6641 -749.0300 -701.7467 29744.3752 -749.0300 -701.7467
ENERGY: 300000 0.0000 0.0000 0.0000 0.0000 -14070.2050 2384.0672 0.0000 0.0000 529.2914 -11156.8464 90.2275 -11686.1378 -11155.0266 89.8961 -279.3655 -249.9354 29301.0051 4.7311 4.8593
TCL: Running 100000 steps at 120 kelvin.
TCL: Setting parameter langevinTemp to 120
TCL: Running for 100000 steps
ETITLE: TS BOND ANGLE DIHED IMPRP ELECT VDW BOUNDARY MISC KINETIC TOTAL TEMP POTENTIAL TOTAL3 TEMPAVG PRESSURE GPRESSURE VOLUME PRESSAVG GPRESSAVG
ENERGY: 300000 0.0000 0.0000 0.0000 0.0000 -14070.2050 2384.0672 0.0000 0.0000 529.0317 -11157.1061 90.1832 -11686.1378 -11155.9994 90.1832 -280.8149 -249.6177 29301.0051 -280.8149 -249.6177
ENERGY: 400000 0.0000 0.0000 0.0000 0.0000 -14126.8878 2572.3990 0.0000 0.0000 695.8285 -10858.6604 118.6168 -11554.4889 -10856.7577 120.0914 1699.3468 1686.0284 29160.3058 5.6542 5.4781
TCL: Running 100000 steps at 150 kelvin.
TCL: Setting parameter langevinTemp to 150
TCL: Running for 100000 steps
ETITLE: TS BOND ANGLE DIHED IMPRP ELECT VDW BOUNDARY MISC KINETIC TOTAL TEMP POTENTIAL TOTAL3 TEMPAVG PRESSURE GPRESSURE VOLUME PRESSAVG GPRESSAVG
ENERGY: 400000 0.0000 0.0000 0.0000 0.0000 -14126.8878 2572.3990 0.0000 0.0000 695.4700 -10859.0189 118.5557 -11554.4889 -10857.7987 118.5557 1647.5877 1686.5246 29160.3058 1647.5877 1686.5246
ENERGY: 500000 0.0000 0.0000 0.0000 0.0000 -13714.1165 2323.6361 0.0000 0.0000 870.1423 -10520.3381 148.3318 -11390.4804 -10517.3943 150.0490 169.7276 284.4683 29229.6652 4.1570 4.1318
TCL: Running 100000 steps at 180 kelvin.
TCL: Setting parameter langevinTemp to 180
TCL: Running for 100000 steps
ETITLE: TS BOND ANGLE DIHED IMPRP ELECT VDW BOUNDARY MISC KINETIC TOTAL TEMP POTENTIAL TOTAL3 TEMPAVG PRESSURE GPRESSURE VOLUME PRESSAVG GPRESSAVG
ENERGY: 500000 0.0000 0.0000 0.0000 0.0000 -13714.1165 2323.6361 0.0000 0.0000 869.6974 -10520.7830 148.2560 -11390.4804 -10519.2321 148.2560 221.8096 284.4944 29229.6652 221.8096 284.4944
ENERGY: 600000 0.0000 0.0000 0.0000 0.0000 -13077.5767 1998.0234 0.0000 0.0000 1046.8688 -10032.6844 178.4581 -11079.5532 -10030.9109 179.9830 -1094.5619 -1000.0401 29177.2171 4.1666 4.1681
TCL: Running 100000 steps at 210 kelvin.
TCL: Setting parameter langevinTemp to 210
TCL: Running for 100000 steps
ETITLE: TS BOND ANGLE DIHED IMPRP ELECT VDW BOUNDARY MISC KINETIC TOTAL TEMP POTENTIAL TOTAL3 TEMPAVG PRESSURE GPRESSURE VOLUME PRESSAVG GPRESSAVG
ENERGY: 600000 0.0000 0.0000 0.0000 0.0000 -13077.5767 1998.0234 0.0000 0.0000 1046.3577 -10033.1955 178.3710 -11079.5532 -10031.4908 178.3710 -1064.4768 -1000.0724 29177.2171 -1064.4768 -1000.0724
ENERGY: 700000 0.0000 0.0000 0.0000 0.0000 -12460.0241 1825.0988 0.0000 0.0000 1277.1259 -9357.7994 217.7097 -10634.9253 -9354.9059 210.2763 -659.9591 -569.8115 28892.9254 2.5973 2.6206
TCL: Running 100000 steps at 240 kelvin.
TCL: Setting parameter langevinTemp to 240
TCL: Running for 100000 steps
ETITLE: TS BOND ANGLE DIHED IMPRP ELECT VDW BOUNDARY MISC KINETIC TOTAL TEMP POTENTIAL TOTAL3 TEMPAVG PRESSURE GPRESSURE VOLUME PRESSAVG GPRESSAVG
ENERGY: 700000 0.0000 0.0000 0.0000 0.0000 -12460.0241 1825.0988 0.0000 0.0000 1276.5172 -9358.4081 217.6059 -10634.9253 -9355.9001 217.6059 -648.2161 -570.3134 28892.9254 -648.2161 -570.3134
ENERGY: 800000 0.0000 0.0000 0.0000 0.0000 -11999.1619 1804.7097 0.0000 0.0000 1386.6950 -8807.7573 236.3878 -10194.4522 -8805.8912 240.1635 646.1572 714.9271 28987.3410 2.6659 2.7131
TCL: Running 100000 steps at 270 kelvin.
TCL: Setting parameter langevinTemp to 270
TCL: Running for 100000 steps
ETITLE: TS BOND ANGLE DIHED IMPRP ELECT VDW BOUNDARY MISC KINETIC TOTAL TEMP POTENTIAL TOTAL3 TEMPAVG PRESSURE GPRESSURE VOLUME PRESSAVG GPRESSAVG
ENERGY: 800000 0.0000 0.0000 0.0000 0.0000 -11999.1619 1804.7097 0.0000 0.0000 1385.9668 -8808.4854 236.2636 -10194.4522 -8807.1497 236.2636 657.1422 714.9063 28987.3410 657.1422 714.9063
ENERGY: 900000 0.0000 0.0000 0.0000 0.0000 -11424.4180 1569.2975 0.0000 0.0000 1586.5790 -8268.5415 270.4617 -9855.1205 -8264.7430 269.7821 -277.6379 -157.8190 29514.8018 2.9128 2.8152
TCL: Running 1000000 steps at 300 kelvin.
TCL: Setting parameter langevinTemp to 300
TCL: Running for 1000000 steps
ETITLE: TS BOND ANGLE DIHED IMPRP ELECT VDW BOUNDARY MISC KINETIC TOTAL TEMP POTENTIAL TOTAL3 TEMPAVG PRESSURE GPRESSURE VOLUME PRESSAVG GPRESSAVG
ENERGY: 900000 0.0000 0.0000 0.0000 0.0000 -11424.4180 1569.2975 0.0000 0.0000 1585.8006 -8269.3199 270.3290 -9855.1205 -8266.0539 270.3290 -230.3953 -157.6670 29514.8018 -230.3953 -157.6670
ENERGY: 1100000 0.0000 0.0000 0.0000 0.0000 -11019.9878 1573.0746 0.0000 0.0000 1785.6674 -7661.2458 304.4000 -9446.9132 -7657.7789 300.4413 753.9700 870.5540 30368.9561 4.8331 4.4601
ENERGY: 1300000 0.0000 0.0000 0.0000 0.0000 -10651.1432 1354.8389 0.0000 0.0000 1773.2457 -7523.0586 302.2825 -9296.3043 -7517.5366 299.4994 -720.7304 -643.4531 31020.8055 2.9572 2.9308
ENERGY: 1500000 0.0000 0.0000 0.0000 0.0000 -10751.8435 1427.6921 0.0000 0.0000 1753.6424 -7570.5090 298.9407 -9324.1513 -7566.7558 299.3651 37.9268 106.5534 30295.4390 2.6587 2.5837
ENERGY: 1700000 0.0000 0.0000 0.0000 0.0000 -10733.0526 1382.2951 0.0000 0.0000 1726.9472 -7623.8103 294.3900 -9350.7575 -7620.5053 299.8186 -587.4943 -478.4328 30291.1938 3.0064 2.8438
ENERGY: 1900000 0.0000 0.0000 0.0000 0.0000 -10879.6643 1479.8162 0.0000 0.0000 1763.1386 -7636.7094 300.5595 -9399.8480 -7634.0887 300.7334 103.5595 248.8313 30274.7656 2.6815 2.5301
TCL: Exiting due to exit command.
