Info: SIMULATION PARAMETERS:
Info: TIMESTEP               2
Info: NUMBER OF STEPS        0
Info: STEPS PER CYCLE        10
Info: PERIODIC CELL BASIS 1  37.435 0 0
Info: PERIODIC CELL BASIS 2  0 35.779 0
Info: PERIODIC CELL BASIS 3  0 0 31.349
Info: PERIODIC CELL CENTER   0 0 0
Info: WRAPPING WATERS AROUND PERIODIC BOUNDARIES ON OUTPUT.
Info: WRAPPING ALL CLUSTERS AROUND PERIODIC BOUNDARIES ON OUTPUT.
Info: FIRST LDB TIMESTEP     50
Info: LAST LDB TIMESTEP     -1
Info: HOM BACKGROUND SCALING 1
Info: PME BACKGROUND SCALING 1
Info: MIN ATOMS PER PATCH    40
Info: EMPTY PATCH LOAD       40 ATOMS
Info: INITIAL TEMPERATURE    300
Info: CENTER OF MASS MOVING INITIALLY? NO
Info: DIELECTRIC             1
Info: EXCLUDE                SCALED ONE-FOUR
Info: 1-4 ELECTROSTATICS SCALED BY 0.833333
Info: MODIFIED 1-4 VDW PARAMETERS WILL BE USED
Info: DCD FILENAME           mobley_5857_equil.dcd
Info: DCD FREQUENCY          100000
Info: DCD FIRST STEP         100000
Info: DCD FILE WILL CONTAIN UNIT CELL DATA
Info: XST FILENAME           mobley_5857_equil.xst
Info: XST FREQUENCY          100000
Info: NO VELOCITY DCD OUTPUT
Info: NO FORCE DCD OUTPUT
Info: OUTPUT FILENAME        mobley_5857_equil
Info: BINARY OUTPUT FILES WILL BE USED
Info: RESTART FILENAME       mobley_5857_equil.restart
Info: RESTART FREQUENCY      100000
Info: BINARY RESTART FILES WILL BE USED
Info: CUTOFF                 9
Info: PAIRLIST DISTANCE      11
Info: PAIRLIST SHRINK RATE   0.01
Info: PAIRLIST GROW RATE     0.01
Info: PAIRLIST TRIGGER       0.3
Info: PAIRLISTS PER CYCLE    2
Info: PAIRLISTS ENABLED
Info: MARGIN                 8
Info: HYDROGEN GROUP CUTOFF  2.5
Info: PATCH DIMENSION        21.5
Info: ENERGY OUTPUT STEPS    100000
Info: ENERGY EVALUATION STEPS    100000
Info: OUTPUT ENERGY PRECISION 4
Info: CROSSTERM ENERGY INCLUDED IN DIHEDRAL
Info: TIMING OUTPUT STEPS    1000000
Info: PRESSURE OUTPUT STEPS  100000
Info: FIXED ATOMS ACTIVE
Info: LANGEVIN DYNAMICS ACTIVE
Info: LANGEVIN TEMPERATURE   30
Info: LANGEVIN USING BBK INTEGRATOR
Info: LANGEVIN DAMPING COEFFICIENT IS 1 INVERSE PS
Info: LANGEVIN DYNAMICS APPLIED TO HYDROGENS
Info: LANGEVIN PISTON PRESSURE CONTROL ACTIVE
Info:        TARGET PRESSURE IS 1.01325 BAR
Info:     OSCILLATION PERIOD IS 50 FS
Info:             DECAY TIME IS 25 FS
Info:     PISTON TEMPERATURE IS 300 K
Info:       PRESSURE CONTROL IS GROUP-BASED
Info:    INITIAL STRAIN RATE IS 0 0 0
Info:       CELL FLUCTUATION IS ISOTROPIC
Info: PARTICLE MESH EWALD (PME) ACTIVE
Info: PME TOLERANCE               1e-06
Info: PME EWALD COEFFICIENT       0.348832
Info: PME INTERPOLATION ORDER     4
Info: PME GRID DIMENSIONS         40 36 32
Info: PME MAXIMUM GRID SPACING    1
Info: FULL ELECTROSTATIC EVALUATION FREQUENCY      2
Info: USING VERLET I (r-RESPA) MTS SCHEME.
Info: C1 SPLITTING OF LONG RANGE ELECTROSTATICS
Info: PLACING ATOMS IN PATCHES BY HYDROGEN GROUPS
Info: RIGID BONDS TO HYDROGEN : ALL
Info:         ERROR TOLERANCE : 1e-08
Info:          MAX ITERATIONS : 100
Info: RIGID WATER USING SETTLE ALGORITHM
Info: RANDOM NUMBER SEED     1743739516
Info: USE HYDROGEN BONDS?    NO
Info: Using AMBER format force field!
Info: AMBER PARM FILE        mobley_5857.prmtop
Info: COORDINATE PDB         mobley_5857.pdb
Info: Exclusions will be read from PARM file!
Info: SCNB (VDW SCALING)     2
Info: USING ARITHMETIC MEAN TO COMBINE L-J SIGMA PARAMETERS
Info: BINARY COORDINATES     mobley_5857_min.coor
Info: SUMMARY OF PARAMETERS:
Info: 6 BONDS
Info: 6 ANGLES
Info:   6 HARMONIC
Info:   0 COSINE-BASED
Info: 3 DIHEDRAL
Info: 0 IMPROPER
Info: 0 CROSSTERM
Info: 0 VDW
Info: 21 VDW_PAIRS
Info: 0 NBTHOLE_PAIRS
Info: STRUCTURE SUMMARY:
Info: 2903 ATOMS
Info: 2904 BONDS
Info: 28 ANGLES
Info: 49 DIHEDRALS
Info: 0 IMPROPERS
Info: 0 CROSSTERMS
Info: 2966 EXCLUSIONS
Info: 17 FIXED ATOMS
Info: 2893 RIGID BONDS
Info: 7 RIGID BONDS BETWEEN FIXED ATOMS
Info: 5772 DEGREES OF FREEDOM
Info: 972 HYDROGEN GROUPS
Info: 3 ATOMS IN LARGEST HYDROGEN GROUP
Info: 972 MIGRATION GROUPS
Info: 3 ATOMS IN LARGEST MIGRATION GROUP
Info: 10 HYDROGEN GROUPS WITH ALL ATOMS FIXED
Info: TOTAL MASS = 17460.5 amu
Info: TOTAL CHARGE = 0.000100004 e
Info: MASS DENSITY = 0.690538 g/cm^3
Info: ATOM DENSITY = 0.0691381 atoms/A^3
Info: ADDED 0 IMPLICIT EXCLUSIONS
Info: NONBONDED TABLE R-SQUARED SPACING: 0.0625
Info: NONBONDED TABLE SIZE: 705 POINTS
Info: REMOVING COM VELOCITY 0.052638 0.188321 0.111132
TCL: Running for 100000 steps
ETITLE: TS BOND ANGLE DIHED IMPRP ELECT VDW BOUNDARY MISC KINETIC TOTAL TEMP POTENTIAL TOTAL3 TEMPAVG PRESSURE GPRESSURE VOLUME PRESSAVG GPRESSAVG
ENERGY: 0 0.0000 0.0000 0.0000 0.0000 -13480.2487 2304.8262 0.0000 0.0000 1749.9578 -9425.4647 305.1347 -11175.4226 -9425.0995 305.1347 60.3090 92.0582 41988.4388 60.3090 92.0582
ENERGY: 100000 0.0000 0.0000 0.0000 0.0000 -14306.9484 2675.1998 0.0000 0.0000 176.1846 -11455.5640 30.7208 -11631.7486 -11455.1284 30.9123 2154.1703 2218.8080 27883.5157 4.1932 4.1868
TCL: Running 100000 steps at 60 kelvin.
TCL: Setting parameter langevinTemp to 60
TCL: Running for 100000 steps
ETITLE: TS BOND ANGLE DIHED IMPRP ELECT VDW BOUNDARY MISC KINETIC TOTAL TEMP POTENTIAL TOTAL3 TEMPAVG PRESSURE GPRESSURE VOLUME PRESSAVG GPRESSAVG
ENERGY: 100000 0.0000 0.0000 0.0000 0.0000 -14306.9484 2675.1998 0.0000 0.0000 176.0999 -11455.6487 30.7060 -11631.7486 -11455.3350 30.7060 2163.7442 2219.0043 27883.5157 2163.7442 2219.0043
ENERGY: 200000 0.0000 0.0000 0.0000 0.0000 -13888.7600 2326.8322 0.0000 0.0000 353.0964 -11208.8314 61.5683 -11561.9278 -11207.9375 60.0370 -524.3308 -472.6831 28281.4487 3.1831 3.2005
TCL: Running 100000 steps at 90 kelvin.
TCL: Setting parameter langevinTemp to 90
TCL: Running for 100000 steps
ETITLE: TS BOND ANGLE DIHED IMPRP ELECT VDW BOUNDARY MISC KINETIC TOTAL TEMP POTENTIAL TOTAL3 TEMPAVG PRESSURE GPRESSURE VOLUME PRESSAVG GPRESSAVG
ENERGY: 200000 0.0000 0.0000 0.0000 0.0000 -13888.7600 2326.8322 0.0000 0.0000 352.9150 -11209.0128 61.5367 -11561.9278 -11208.2058 61.5367 -523.9416 -472.7185 28281.4487 -523.9416 -472.7185
ENERGY: 300000 0.0000 0.0000 0.0000 0.0000 -13901.9483 2423.6592 0.0000 0.0000 524.9415 -10953.3475 91.5324 -11478.2890 -10952.4449 89.9322 499.0292 530.9428 28217.5389 4.9686 4.9120
TCL: Running 100000 steps at 120 kelvin.
TCL: Setting parameter langevinTemp to 120
TCL: Running for 100000 steps
ETITLE: TS BOND ANGLE DIHED IMPRP ELECT VDW BOUNDARY MISC KINETIC TOTAL TEMP POTENTIAL TOTAL3 TEMPAVG PRESSURE GPRESSURE VOLUME PRESSAVG GPRESSAVG
ENERGY: 300000 0.0000 0.0000 0.0000 0.0000 -13901.9483 2423.6592 0.0000 0.0000 524.6952 -10953.5938 91.4895 -11478.2890 -10952.5379 91.4895 471.2212 530.9365 28217.5389 471.2212 530.9365
ENERGY: 400000 0.0000 0.0000 0.0000 0.0000 -13655.7693 2349.1881 0.0000 0.0000 681.4076 -10625.1736 118.8149 -11306.5812 -10623.8666 119.6771 492.7513 549.4513 28444.9233 4.5736 4.5166
TCL: Running 100000 steps at 150 kelvin.
TCL: Setting parameter langevinTemp to 150
TCL: Running for 100000 steps
ETITLE: TS BOND ANGLE DIHED IMPRP ELECT VDW BOUNDARY MISC KINETIC TOTAL TEMP POTENTIAL TOTAL3 TEMPAVG PRESSURE GPRESSURE VOLUME PRESSAVG GPRESSAVG
ENERGY: 400000 0.0000 0.0000 0.0000 0.0000 -13655.7693 2349.1881 0.0000 0.0000 681.0630 -10625.5182 118.7549 -11306.5812 -10624.3687 118.7549 503.0357 549.6573 28444.9233 503.0357 549.6573
ENERGY: 500000 0.0000 0.0000 0.0000 0.0000 -13387.5022 2211.8536 0.0000 0.0000 839.2576 -10336.3910 146.3388 -11175.6486 -10334.2341 149.7252 -67.3986 -39.9832 28203.6587 4.4592 4.2430
TCL: Running 100000 steps at 180 kelvin.
TCL: Setting parameter langevinTemp to 180
TCL: Running for 100000 steps
ETITLE: TS BOND ANGLE DIHED IMPRP ELECT VDW BOUNDARY MISC KINETIC TOTAL TEMP POTENTIAL TOTAL3 TEMPAVG PRESSURE GPRESSURE VOLUME PRESSAVG GPRESSAVG
ENERGY: 500000 0.0000 0.0000 0.0000 0.0000 -13387.5022 2211.8536 0.0000 0.0000 838.8481 -10336.8005 146.2673 -11175.6486 -10335.3105 146.2673 -95.5696 -39.7088 28203.6587 -95.5696 -39.7088
ENERGY: 600000 0.0000 0.0000 0.0000 0.0000 -13004.0380 2117.0538 0.0000 0.0000 1008.9753 -9878.0089 175.9319 -10886.9842 -9874.9073 179.5621 40.4127 23.3348 28707.0133 3.4566 3.3618
TCL: Running 100000 steps at 210 kelvin.
TCL: Setting parameter langevinTemp to 210
TCL: Running for 100000 steps
ETITLE: TS BOND ANGLE DIHED IMPRP ELECT VDW BOUNDARY MISC KINETIC TOTAL TEMP POTENTIAL TOTAL3 TEMPAVG PRESSURE GPRESSURE VOLUME PRESSAVG GPRESSAVG
ENERGY: 600000 0.0000 0.0000 0.0000 0.0000 -13004.0380 2117.0538 0.0000 0.0000 1008.4536 -9878.5307 175.8409 -10886.9842 -9876.8631 175.8409 -44.2498 24.4569 28707.0133 -44.2498 24.4569
ENERGY: 700000 0.0000 0.0000 0.0000 0.0000 -12272.9799 1853.3351 0.0000 0.0000 1194.4258 -9225.2191 208.2683 -10419.6448 -9221.7623 209.9356 -49.3146 -17.7185 28196.0910 2.0204 2.0960
TCL: Running 100000 steps at 240 kelvin.
TCL: Setting parameter langevinTemp to 240
TCL: Running for 100000 steps
ETITLE: TS BOND ANGLE DIHED IMPRP ELECT VDW BOUNDARY MISC KINETIC TOTAL TEMP POTENTIAL TOTAL3 TEMPAVG PRESSURE GPRESSURE VOLUME PRESSAVG GPRESSAVG
ENERGY: 700000 0.0000 0.0000 0.0000 0.0000 -12272.9799 1853.3351 0.0000 0.0000 1193.8474 -9225.7974 208.1675 -10419.6448 -9223.3727 208.1675 -81.1668 -17.6635 28196.0910 -81.1668 -17.6635
ENERGY: 800000 0.0000 0.0000 0.0000 0.0000 -11570.1267 1655.5427 0.0000 0.0000 1366.6651 -8547.9188 238.3012 -9914.5840 -8544.3659 239.5811 -141.7675 -71.5356 28725.0646 2.8423 2.8404
TCL: Running 100000 steps at 270 kelvin.
TCL: Setting parameter langevinTemp to 270
TCL: Running for 100000 steps
ETITLE: TS BOND ANGLE DIHED IMPRP ELECT VDW BOUNDARY MISC KINETIC TOTAL TEMP POTENTIAL TOTAL3 TEMPAVG PRESSURE GPRESSURE VOLUME PRESSAVG GPRESSAVG
ENERGY: 800000 0.0000 0.0000 0.0000 0.0000 -11570.1267 1655.5427 0.0000 0.0000 1365.9923 -8548.5917 238.1838 -9914.5840 -8546.3097 238.1838 -160.9450 -72.6563 28725.0646 -160.9450 -72.6563
ENERGY: 900000 0.0000 0.0000 0.0000 0.0000 -10853.3728 1395.9018 0.0000 0.0000 1512.3072 -7945.1638 263.6963 -9457.4710 -7942.7400 270.0791 -1013.7577 -883.7514 29338.2694 4.2909 4.1644
TCL: Running 1000000 steps at 300 kelvin.
TCL: Setting parameter langevinTemp to 300
TCL: Running for 1000000 steps
ETITLE: TS BOND ANGLE DIHED IMPRP ELECT VDW BOUNDARY MISC KINETIC TOTAL TEMP POTENTIAL TOTAL3 TEMPAVG PRESSURE GPRESSURE VOLUME PRESSAVG GPRESSAVG
ENERGY: 900000 0.0000 0.0000 0.0000 0.0000 -10853.3728 1395.9018 0.0000 0.0000 1511.5405 -7945.9305 263.5626 -9457.4710 -7943.4533 263.5626 -983.4903 -885.9114 29338.2694 -983.4903 -885.9114
ENERGY: 1100000 0.0000 0.0000 0.0000 0.0000 -10596.7845 1480.0306 0.0000 0.0000 1754.9905 -7361.7634 306.0123 -9116.7540 -7360.8266 299.8771 560.7969 585.3344 30153.9359 2.2158 2.1365
ENERGY: 1300000 0.0000 0.0000 0.0000 0.0000 -10288.5015 1212.5849 0.0000 0.0000 1769.7743 -7306.1423 308.5901 -9075.9166 -7303.0120 300.0410 -1332.8265 -1230.0215 30219.2236 4.0812 3.9893
ENERGY: 1500000 0.0000 0.0000 0.0000 0.0000 -10562.8426 1391.8368 0.0000 0.0000 1739.5315 -7431.4743 303.3167 -9171.0058 -7428.8699 300.5192 -228.0611 -167.2979 30152.2721 2.0951 2.0261
ENERGY: 1700000 0.0000 0.0000 0.0000 0.0000 -10508.0679 1345.4201 0.0000 0.0000 1737.0194 -7425.6284 302.8787 -9162.6478 -7421.5415 300.3631 -322.7115 -267.3787 29696.7910 3.9743 3.9533
ENERGY: 1900000 0.0000 0.0000 0.0000 0.0000 -10723.8610 1443.1497 0.0000 0.0000 1669.6480 -7611.0633 291.1314 -9280.7113 -7609.9377 300.3859 -56.5973 -6.0754 29733.4914 1.7266 1.6549
TCL: Exiting due to exit command.
