Info: SIMULATION PARAMETERS:
Info: TIMESTEP               2
Info: NUMBER OF STEPS        0
Info: STEPS PER CYCLE        10
Info: PERIODIC CELL BASIS 1  37.133 0 0
Info: PERIODIC CELL BASIS 2  0 34.696 0
Info: PERIODIC CELL BASIS 3  0 0 34.471
Info: PERIODIC CELL CENTER   0 0 0
Info: WRAPPING WATERS AROUND PERIODIC BOUNDARIES ON OUTPUT.
Info: WRAPPING ALL CLUSTERS AROUND PERIODIC BOUNDARIES ON OUTPUT.
Info: FIRST LDB TIMESTEP     50
Info: LAST LDB TIMESTEP     -1
Info: HOM BACKGROUND SCALING 1
Info: PME BACKGROUND SCALING 1
Info: MIN ATOMS PER PATCH    40
Info: EMPTY PATCH LOAD       40 ATOMS
Info: INITIAL TEMPERATURE    300
Info: CENTER OF MASS MOVING INITIALLY? NO
Info: DIELECTRIC             1
Info: EXCLUDE                SCALED ONE-FOUR
Info: 1-4 ELECTROSTATICS SCALED BY 0.833333
Info: MODIFIED 1-4 VDW PARAMETERS WILL BE USED
Info: DCD FILENAME           mobley_9246351_equil.dcd
Info: DCD FREQUENCY          100000
Info: DCD FIRST STEP         100000
Info: DCD FILE WILL CONTAIN UNIT CELL DATA
Info: XST FILENAME           mobley_9246351_equil.xst
Info: XST FREQUENCY          100000
Info: NO VELOCITY DCD OUTPUT
Info: NO FORCE DCD OUTPUT
Info: OUTPUT FILENAME        mobley_9246351_equil
Info: BINARY OUTPUT FILES WILL BE USED
Info: RESTART FILENAME       mobley_9246351_equil.restart
Info: RESTART FREQUENCY      100000
Info: BINARY RESTART FILES WILL BE USED
Info: CUTOFF                 9
Info: PAIRLIST DISTANCE      11
Info: PAIRLIST SHRINK RATE   0.01
Info: PAIRLIST GROW RATE     0.01
Info: PAIRLIST TRIGGER       0.3
Info: PAIRLISTS PER CYCLE    2
Info: PAIRLISTS ENABLED
Info: MARGIN                 8
Info: HYDROGEN GROUP CUTOFF  2.5
Info: PATCH DIMENSION        21.5
Info: ENERGY OUTPUT STEPS    100000
Info: ENERGY EVALUATION STEPS    100000
Info: OUTPUT ENERGY PRECISION 4
Info: CROSSTERM ENERGY INCLUDED IN DIHEDRAL
Info: TIMING OUTPUT STEPS    1000000
Info: PRESSURE OUTPUT STEPS  100000
Info: FIXED ATOMS ACTIVE
Info: LANGEVIN DYNAMICS ACTIVE
Info: LANGEVIN TEMPERATURE   30
Info: LANGEVIN USING BBK INTEGRATOR
Info: LANGEVIN DAMPING COEFFICIENT IS 1 INVERSE PS
Info: LANGEVIN DYNAMICS APPLIED TO HYDROGENS
Info: LANGEVIN PISTON PRESSURE CONTROL ACTIVE
Info:        TARGET PRESSURE IS 1.01325 BAR
Info:     OSCILLATION PERIOD IS 50 FS
Info:             DECAY TIME IS 25 FS
Info:     PISTON TEMPERATURE IS 300 K
Info:       PRESSURE CONTROL IS GROUP-BASED
Info:    INITIAL STRAIN RATE IS 0 0 0
Info:       CELL FLUCTUATION IS ISOTROPIC
Info: PARTICLE MESH EWALD (PME) ACTIVE
Info: PME TOLERANCE               1e-06
Info: PME EWALD COEFFICIENT       0.348832
Info: PME INTERPOLATION ORDER     4
Info: PME GRID DIMENSIONS         40 36 36
Info: PME MAXIMUM GRID SPACING    1
Info: FULL ELECTROSTATIC EVALUATION FREQUENCY      2
Info: USING VERLET I (r-RESPA) MTS SCHEME.
Info: C1 SPLITTING OF LONG RANGE ELECTROSTATICS
Info: PLACING ATOMS IN PATCHES BY HYDROGEN GROUPS
Info: RIGID BONDS TO HYDROGEN : ALL
Info:         ERROR TOLERANCE : 1e-08
Info:          MAX ITERATIONS : 100
Info: RIGID WATER USING SETTLE ALGORITHM
Info: RANDOM NUMBER SEED     1743679226
Info: USE HYDROGEN BONDS?    NO
Info: Using AMBER format force field!
Info: AMBER PARM FILE        mobley_9246351.prmtop
Info: COORDINATE PDB         mobley_9246351.pdb
Info: Exclusions will be read from PARM file!
Info: SCNB (VDW SCALING)     2
Info: USING ARITHMETIC MEAN TO COMBINE L-J SIGMA PARAMETERS
Info: BINARY COORDINATES     mobley_9246351_min.coor
Info: SUMMARY OF PARAMETERS:
Info: 4 BONDS
Info: 3 ANGLES
Info:   3 HARMONIC
Info:   0 COSINE-BASED
Info: 0 DIHEDRAL
Info: 0 IMPROPER
Info: 0 CROSSTERM
Info: 0 VDW
Info: 15 VDW_PAIRS
Info: 0 NBTHOLE_PAIRS
Info: STRUCTURE SUMMARY:
Info: 2993 ATOMS
Info: 2992 BONDS
Info: 6 ANGLES
Info: 0 DIHEDRALS
Info: 0 IMPROPERS
Info: 0 CROSSTERMS
Info: 2998 EXCLUSIONS
Info: 5 FIXED ATOMS
Info: 2990 RIGID BONDS
Info: 2 RIGID BONDS BETWEEN FIXED ATOMS
Info: 5976 DEGREES OF FREEDOM
Info: 999 HYDROGEN GROUPS
Info: 3 ATOMS IN LARGEST HYDROGEN GROUP
Info: 999 MIGRATION GROUPS
Info: 3 ATOMS IN LARGEST MIGRATION GROUP
Info: 3 HYDROGEN GROUPS WITH ALL ATOMS FIXED
Info: TOTAL MASS = 18117.8 amu
Info: TOTAL CHARGE = -0.000100001 e
Info: MASS DENSITY = 0.677439 g/cm^3
Info: ATOM DENSITY = 0.0673928 atoms/A^3
Info: ADDED 0 IMPLICIT EXCLUSIONS
Info: NONBONDED TABLE R-SQUARED SPACING: 0.0625
Info: NONBONDED TABLE SIZE: 705 POINTS
Info: REMOVING COM VELOCITY 0.2069 0.0338069 0.0986478
TCL: Running for 100000 steps
ETITLE: TS BOND ANGLE DIHED IMPRP ELECT VDW BOUNDARY MISC KINETIC TOTAL TEMP POTENTIAL TOTAL3 TEMPAVG PRESSURE GPRESSURE VOLUME PRESSAVG GPRESSAVG
ENERGY: 0 0.0000 0.0000 0.0000 0.0000 -13884.1068 2431.3589 0.0000 0.0000 1835.2145 -9617.5333 309.0770 -11452.7478 -9617.1743 309.0770 420.4879 460.5762 44411.2840 420.4879 460.5762
ENERGY: 100000 0.0000 0.0000 0.0000 0.0000 -14538.8958 2568.0196 0.0000 0.0000 170.4334 -11800.4428 28.7035 -11970.8762 -11799.9750 30.9568 340.5972 380.7305 29259.4218 2.4804 2.5435
TCL: Running 100000 steps at 60 kelvin.
TCL: Setting parameter langevinTemp to 60
TCL: Running for 100000 steps
ETITLE: TS BOND ANGLE DIHED IMPRP ELECT VDW BOUNDARY MISC KINETIC TOTAL TEMP POTENTIAL TOTAL3 TEMPAVG PRESSURE GPRESSURE VOLUME PRESSAVG GPRESSAVG
ENERGY: 100000 0.0000 0.0000 0.0000 0.0000 -14538.8958 2568.0196 0.0000 0.0000 170.3452 -11800.5310 28.6886 -11970.8762 -11800.2157 28.6886 333.8651 380.7171 29259.4218 333.8651 380.7171
ENERGY: 200000 0.0000 0.0000 0.0000 0.0000 -14402.5366 2516.2541 0.0000 0.0000 367.2474 -11519.0351 61.8498 -11886.2825 -11518.5712 59.9186 147.3609 222.4234 29808.1935 4.1995 4.3593
TCL: Running 100000 steps at 90 kelvin.
TCL: Setting parameter langevinTemp to 90
TCL: Running for 100000 steps
ETITLE: TS BOND ANGLE DIHED IMPRP ELECT VDW BOUNDARY MISC KINETIC TOTAL TEMP POTENTIAL TOTAL3 TEMPAVG PRESSURE GPRESSURE VOLUME PRESSAVG GPRESSAVG
ENERGY: 200000 0.0000 0.0000 0.0000 0.0000 -14402.5366 2516.2541 0.0000 0.0000 367.0652 -11519.2172 61.8192 -11886.2825 -11518.4570 61.8192 166.1904 222.4940 29808.1935 166.1904 222.4940
ENERGY: 300000 0.0000 0.0000 0.0000 0.0000 -14214.9241 2450.5674 0.0000 0.0000 523.9133 -11240.4434 88.2347 -11764.3567 -11239.3774 90.0366 307.5200 366.3506 29411.4845 3.6200 3.7121
TCL: Running 100000 steps at 120 kelvin.
TCL: Setting parameter langevinTemp to 120
TCL: Running for 100000 steps
ETITLE: TS BOND ANGLE DIHED IMPRP ELECT VDW BOUNDARY MISC KINETIC TOTAL TEMP POTENTIAL TOTAL3 TEMPAVG PRESSURE GPRESSURE VOLUME PRESSAVG GPRESSAVG
ENERGY: 300000 0.0000 0.0000 0.0000 0.0000 -14214.9241 2450.5674 0.0000 0.0000 523.6466 -11240.7101 88.1897 -11764.3567 -11239.6872 88.1897 325.5674 366.5927 29411.4845 325.5674 366.5927
ENERGY: 400000 0.0000 0.0000 0.0000 0.0000 -13966.8004 2318.2320 0.0000 0.0000 706.5935 -10941.9748 119.0007 -11648.5684 -10940.2887 119.7862 -340.0486 -290.8064 29501.6770 4.7488 4.6378
TCL: Running 100000 steps at 150 kelvin.
TCL: Setting parameter langevinTemp to 150
TCL: Running for 100000 steps
ETITLE: TS BOND ANGLE DIHED IMPRP ELECT VDW BOUNDARY MISC KINETIC TOTAL TEMP POTENTIAL TOTAL3 TEMPAVG PRESSURE GPRESSURE VOLUME PRESSAVG GPRESSAVG
ENERGY: 400000 0.0000 0.0000 0.0000 0.0000 -13966.8004 2318.2320 0.0000 0.0000 706.2251 -10942.3433 118.9386 -11648.5684 -10940.8777 118.9386 -339.3777 -291.3509 29501.6770 -339.3777 -291.3509
ENERGY: 500000 0.0000 0.0000 0.0000 0.0000 -13753.7066 2278.7215 0.0000 0.0000 891.9457 -10583.0394 150.2167 -11474.9851 -10581.0489 149.7714 -55.6186 10.6850 29253.6595 4.4433 4.2497
TCL: Running 100000 steps at 180 kelvin.
TCL: Setting parameter langevinTemp to 180
TCL: Running for 100000 steps
ETITLE: TS BOND ANGLE DIHED IMPRP ELECT VDW BOUNDARY MISC KINETIC TOTAL TEMP POTENTIAL TOTAL3 TEMPAVG PRESSURE GPRESSURE VOLUME PRESSAVG GPRESSAVG
ENERGY: 500000 0.0000 0.0000 0.0000 0.0000 -13753.7066 2278.7215 0.0000 0.0000 891.4959 -10583.4893 150.1409 -11474.9851 -10581.7727 150.1409 -38.4710 11.2865 29253.6595 -38.4710 11.2865
ENERGY: 600000 0.0000 0.0000 0.0000 0.0000 -13377.6613 2170.1615 0.0000 0.0000 1066.7135 -10140.7863 179.6501 -11207.4998 -10138.9009 179.6860 -61.3698 -32.3403 29629.2445 3.8816 3.9307
TCL: Running 100000 steps at 210 kelvin.
TCL: Setting parameter langevinTemp to 210
TCL: Running for 100000 steps
ETITLE: TS BOND ANGLE DIHED IMPRP ELECT VDW BOUNDARY MISC KINETIC TOTAL TEMP POTENTIAL TOTAL3 TEMPAVG PRESSURE GPRESSURE VOLUME PRESSAVG GPRESSAVG
ENERGY: 600000 0.0000 0.0000 0.0000 0.0000 -13377.6613 2170.1615 0.0000 0.0000 1066.1533 -10141.3465 179.5558 -11207.4998 -10139.5439 179.5558 -90.9111 -33.1213 29629.2445 -90.9111 -33.1213
ENERGY: 700000 0.0000 0.0000 0.0000 0.0000 -12545.1672 1859.1974 0.0000 0.0000 1247.9677 -9438.0022 210.1760 -10685.9699 -9433.7553 209.7354 -500.6307 -407.3238 29326.0723 4.0770 3.9631
TCL: Running 100000 steps at 240 kelvin.
TCL: Setting parameter langevinTemp to 240
TCL: Running for 100000 steps
ETITLE: TS BOND ANGLE DIHED IMPRP ELECT VDW BOUNDARY MISC KINETIC TOTAL TEMP POTENTIAL TOTAL3 TEMPAVG PRESSURE GPRESSURE VOLUME PRESSAVG GPRESSAVG
ENERGY: 700000 0.0000 0.0000 0.0000 0.0000 -12545.1672 1859.1974 0.0000 0.0000 1247.3283 -9438.6416 210.0683 -10685.9699 -9436.6835 210.0683 -488.4784 -404.7276 29326.0723 -488.4784 -404.7276
ENERGY: 800000 0.0000 0.0000 0.0000 0.0000 -12078.7148 1756.5745 0.0000 0.0000 1464.9786 -8857.1617 246.7238 -10322.1403 -8853.2931 239.8241 30.6198 105.6463 29246.9201 4.1590 4.4560
TCL: Running 100000 steps at 270 kelvin.
TCL: Setting parameter langevinTemp to 270
TCL: Running for 100000 steps
ETITLE: TS BOND ANGLE DIHED IMPRP ELECT VDW BOUNDARY MISC KINETIC TOTAL TEMP POTENTIAL TOTAL3 TEMPAVG PRESSURE GPRESSURE VOLUME PRESSAVG GPRESSAVG
ENERGY: 800000 0.0000 0.0000 0.0000 0.0000 -12078.7148 1756.5745 0.0000 0.0000 1464.2449 -8857.8954 246.6003 -10322.1403 -8855.7887 246.6003 16.0966 107.2402 29246.9201 16.0966 107.2402
ENERGY: 900000 0.0000 0.0000 0.0000 0.0000 -11327.1832 1544.7889 0.0000 0.0000 1554.4650 -8227.9293 261.7946 -9782.3943 -8224.0428 269.0999 -517.0043 -393.2311 30656.4183 2.8838 2.8628
TCL: Running 1000000 steps at 300 kelvin.
TCL: Setting parameter langevinTemp to 300
TCL: Running for 1000000 steps
ETITLE: TS BOND ANGLE DIHED IMPRP ELECT VDW BOUNDARY MISC KINETIC TOTAL TEMP POTENTIAL TOTAL3 TEMPAVG PRESSURE GPRESSURE VOLUME PRESSAVG GPRESSAVG
ENERGY: 900000 0.0000 0.0000 0.0000 0.0000 -11327.1832 1544.7889 0.0000 0.0000 1553.6259 -8228.7684 261.6533 -9782.3943 -8226.1914 261.6533 -480.9738 -393.4094 30656.4183 -480.9738 -393.4094
ENERGY: 1100000 0.0000 0.0000 0.0000 0.0000 -10790.6153 1443.5765 0.0000 0.0000 1745.8696 -7601.1692 294.0300 -9347.0388 -7598.0980 299.8320 -68.0952 35.3618 30962.5642 3.9731 4.0958
ENERGY: 1300000 0.0000 0.0000 0.0000 0.0000 -10877.4929 1426.9922 0.0000 0.0000 1748.5837 -7701.9171 294.4871 -9450.5007 -7700.5979 300.7997 -341.0065 -262.2467 30770.3680 4.1074 4.0312
ENERGY: 1500000 0.0000 0.0000 0.0000 0.0000 -10793.5107 1411.4960 0.0000 0.0000 1764.5027 -7617.5120 297.1680 -9382.0147 -7613.5033 300.6479 -158.6599 -79.4678 30710.9426 2.2294 2.2717
ENERGY: 1700000 0.0000 0.0000 0.0000 0.0000 -10933.7123 1542.9215 0.0000 0.0000 1790.5836 -7600.2073 301.5605 -9390.7908 -7597.7906 299.7708 620.6781 763.2490 30904.1992 3.5781 3.5309
ENERGY: 1900000 0.0000 0.0000 0.0000 0.0000 -10838.6023 1493.6277 0.0000 0.0000 1864.2485 -7480.7261 313.9667 -9344.9746 -7477.2651 300.2283 414.3075 556.9480 30982.0189 3.1773 3.0203
TCL: Exiting due to exit command.
