Info: SIMULATION PARAMETERS:
Info: TIMESTEP               2
Info: NUMBER OF STEPS        0
Info: STEPS PER CYCLE        10
Info: PERIODIC CELL BASIS 1  37.133 0 0
Info: PERIODIC CELL BASIS 2  0 35.847 0
Info: PERIODIC CELL BASIS 3  0 0 33.876
Info: PERIODIC CELL CENTER   0 0 0
Info: WRAPPING WATERS AROUND PERIODIC BOUNDARIES ON OUTPUT.
Info: WRAPPING ALL CLUSTERS AROUND PERIODIC BOUNDARIES ON OUTPUT.
Info: FIRST LDB TIMESTEP     50
Info: LAST LDB TIMESTEP     -1
Info: HOM BACKGROUND SCALING 1
Info: PME BACKGROUND SCALING 1
Info: MIN ATOMS PER PATCH    40
Info: EMPTY PATCH LOAD       40 ATOMS
Info: INITIAL TEMPERATURE    300
Info: CENTER OF MASS MOVING INITIALLY? NO
Info: DIELECTRIC             1
Info: EXCLUDE                SCALED ONE-FOUR
Info: 1-4 ELECTROSTATICS SCALED BY 0.833333
Info: MODIFIED 1-4 VDW PARAMETERS WILL BE USED
Info: DCD FILENAME           mobley_5499659_equil.dcd
Info: DCD FREQUENCY          100000
Info: DCD FIRST STEP         100000
Info: DCD FILE WILL CONTAIN UNIT CELL DATA
Info: XST FILENAME           mobley_5499659_equil.xst
Info: XST FREQUENCY          100000
Info: NO VELOCITY DCD OUTPUT
Info: NO FORCE DCD OUTPUT
Info: OUTPUT FILENAME        mobley_5499659_equil
Info: BINARY OUTPUT FILES WILL BE USED
Info: RESTART FILENAME       mobley_5499659_equil.restart
Info: RESTART FREQUENCY      100000
Info: BINARY RESTART FILES WILL BE USED
Info: CUTOFF                 9
Info: PAIRLIST DISTANCE      11
Info: PAIRLIST SHRINK RATE   0.01
Info: PAIRLIST GROW RATE     0.01
Info: PAIRLIST TRIGGER       0.3
Info: PAIRLISTS PER CYCLE    2
Info: PAIRLISTS ENABLED
Info: MARGIN                 8
Info: HYDROGEN GROUP CUTOFF  2.5
Info: PATCH DIMENSION        21.5
Info: ENERGY OUTPUT STEPS    100000
Info: ENERGY EVALUATION STEPS    100000
Info: OUTPUT ENERGY PRECISION 4
Info: CROSSTERM ENERGY INCLUDED IN DIHEDRAL
Info: TIMING OUTPUT STEPS    1000000
Info: PRESSURE OUTPUT STEPS  100000
Info: FIXED ATOMS ACTIVE
Info: LANGEVIN DYNAMICS ACTIVE
Info: LANGEVIN TEMPERATURE   30
Info: LANGEVIN USING BBK INTEGRATOR
Info: LANGEVIN DAMPING COEFFICIENT IS 1 INVERSE PS
Info: LANGEVIN DYNAMICS APPLIED TO HYDROGENS
Info: LANGEVIN PISTON PRESSURE CONTROL ACTIVE
Info:        TARGET PRESSURE IS 1.01325 BAR
Info:     OSCILLATION PERIOD IS 50 FS
Info:             DECAY TIME IS 25 FS
Info:     PISTON TEMPERATURE IS 300 K
Info:       PRESSURE CONTROL IS GROUP-BASED
Info:    INITIAL STRAIN RATE IS 0 0 0
Info:       CELL FLUCTUATION IS ISOTROPIC
Info: PARTICLE MESH EWALD (PME) ACTIVE
Info: PME TOLERANCE               1e-06
Info: PME EWALD COEFFICIENT       0.348832
Info: PME INTERPOLATION ORDER     4
Info: PME GRID DIMENSIONS         40 36 36
Info: PME MAXIMUM GRID SPACING    1
Info: FULL ELECTROSTATIC EVALUATION FREQUENCY      2
Info: USING VERLET I (r-RESPA) MTS SCHEME.
Info: C1 SPLITTING OF LONG RANGE ELECTROSTATICS
Info: PLACING ATOMS IN PATCHES BY HYDROGEN GROUPS
Info: RIGID BONDS TO HYDROGEN : ALL
Info:         ERROR TOLERANCE : 1e-08
Info:          MAX ITERATIONS : 100
Info: RIGID WATER USING SETTLE ALGORITHM
Info: RANDOM NUMBER SEED     1743720643
Info: USE HYDROGEN BONDS?    NO
Info: Using AMBER format force field!
Info: AMBER PARM FILE        mobley_5499659.prmtop
Info: COORDINATE PDB         mobley_5499659.pdb
Info: Exclusions will be read from PARM file!
Info: SCNB (VDW SCALING)     2
Info: USING ARITHMETIC MEAN TO COMBINE L-J SIGMA PARAMETERS
Info: BINARY COORDINATES     mobley_5499659_min.coor
Info: SUMMARY OF PARAMETERS:
Info: 11 BONDS
Info: 14 ANGLES
Info:   14 HARMONIC
Info:   0 COSINE-BASED
Info: 5 DIHEDRAL
Info: 0 IMPROPER
Info: 0 CROSSTERM
Info: 0 VDW
Info: 36 VDW_PAIRS
Info: 0 NBTHOLE_PAIRS
Info: STRUCTURE SUMMARY:
Info: 2997 ATOMS
Info: 2997 BONDS
Info: 19 ANGLES
Info: 26 DIHEDRALS
Info: 0 IMPROPERS
Info: 0 CROSSTERMS
Info: 3033 EXCLUSIONS
Info: 12 FIXED ATOMS
Info: 2991 RIGID BONDS
Info: 6 RIGID BONDS BETWEEN FIXED ATOMS
Info: 5970 DEGREES OF FREEDOM
Info: 1001 HYDROGEN GROUPS
Info: 4 ATOMS IN LARGEST HYDROGEN GROUP
Info: 1001 MIGRATION GROUPS
Info: 4 ATOMS IN LARGEST MIGRATION GROUP
Info: 6 HYDROGEN GROUPS WITH ALL ATOMS FIXED
Info: TOTAL MASS = 18008 amu
Info: TOTAL CHARGE = 0.000100017 e
Info: MASS DENSITY = 0.663163 g/cm^3
Info: ATOM DENSITY = 0.0664633 atoms/A^3
Info: ADDED 0 IMPLICIT EXCLUSIONS
Info: NONBONDED TABLE R-SQUARED SPACING: 0.0625
Info: NONBONDED TABLE SIZE: 705 POINTS
Info: REMOVING COM VELOCITY -0.122684 0.0902197 -0.0846118
TCL: Running for 100000 steps
ETITLE: TS BOND ANGLE DIHED IMPRP ELECT VDW BOUNDARY MISC KINETIC TOTAL TEMP POTENTIAL TOTAL3 TEMPAVG PRESSURE GPRESSURE VOLUME PRESSAVG GPRESSAVG
ENERGY: 0 0.0000 0.0000 0.0000 0.0000 -13967.4666 2466.0394 0.0000 0.0000 1765.1048 -9736.3224 297.5682 -11501.4272 -9735.9889 297.5682 476.3938 506.7065 45092.5689 476.3938 506.7065
ENERGY: 100000 0.0000 0.0000 0.0000 0.0000 -14422.5047 2436.4599 0.0000 0.0000 179.0854 -11806.9594 30.1909 -11986.0448 -11806.4380 30.8783 -671.7486 -616.2333 29708.5443 4.2475 4.2005
TCL: Running 100000 steps at 60 kelvin.
TCL: Setting parameter langevinTemp to 60
TCL: Running for 100000 steps
ETITLE: TS BOND ANGLE DIHED IMPRP ELECT VDW BOUNDARY MISC KINETIC TOTAL TEMP POTENTIAL TOTAL3 TEMPAVG PRESSURE GPRESSURE VOLUME PRESSAVG GPRESSAVG
ENERGY: 100000 0.0000 0.0000 0.0000 0.0000 -14422.5047 2436.4599 0.0000 0.0000 178.9951 -11807.0497 30.1757 -11986.0448 -11806.6417 30.1757 -658.9090 -616.2914 29708.5443 -658.9090 -616.2914
ENERGY: 200000 0.0000 0.0000 0.0000 0.0000 -14267.9719 2350.0718 0.0000 0.0000 371.1368 -11546.7633 62.5677 -11917.9001 -11545.7626 59.9722 -1053.5191 -1017.2950 29809.8100 3.4021 3.3249
TCL: Running 100000 steps at 90 kelvin.
TCL: Setting parameter langevinTemp to 90
TCL: Running for 100000 steps
ETITLE: TS BOND ANGLE DIHED IMPRP ELECT VDW BOUNDARY MISC KINETIC TOTAL TEMP POTENTIAL TOTAL3 TEMPAVG PRESSURE GPRESSURE VOLUME PRESSAVG GPRESSAVG
ENERGY: 200000 0.0000 0.0000 0.0000 0.0000 -14267.9719 2350.0718 0.0000 0.0000 370.9531 -11546.9470 62.5367 -11917.9001 -11545.9011 62.5367 -1062.8612 -1017.5123 29809.8100 -1062.8612 -1017.5123
ENERGY: 300000 0.0000 0.0000 0.0000 0.0000 -14134.0779 2339.3870 0.0000 0.0000 535.5650 -11259.1258 90.2876 -11794.6908 -11257.9405 89.6545 -689.9267 -630.0139 29665.9091 4.7779 4.8290
TCL: Running 100000 steps at 120 kelvin.
TCL: Setting parameter langevinTemp to 120
TCL: Running for 100000 steps
ETITLE: TS BOND ANGLE DIHED IMPRP ELECT VDW BOUNDARY MISC KINETIC TOTAL TEMP POTENTIAL TOTAL3 TEMPAVG PRESSURE GPRESSURE VOLUME PRESSAVG GPRESSAVG
ENERGY: 300000 0.0000 0.0000 0.0000 0.0000 -14134.0779 2339.3870 0.0000 0.0000 535.3053 -11259.3855 90.2439 -11794.6908 -11258.1879 90.2439 -685.3060 -630.1315 29665.9091 -685.3060 -630.1315
ENERGY: 400000 0.0000 0.0000 0.0000 0.0000 -13990.7325 2281.3262 0.0000 0.0000 684.9250 -11024.4813 115.4673 -11709.4063 -11022.2429 119.9409 -782.2600 -743.8139 29337.7206 4.2243 4.1430
TCL: Running 100000 steps at 150 kelvin.
TCL: Setting parameter langevinTemp to 150
TCL: Running for 100000 steps
ETITLE: TS BOND ANGLE DIHED IMPRP ELECT VDW BOUNDARY MISC KINETIC TOTAL TEMP POTENTIAL TOTAL3 TEMPAVG PRESSURE GPRESSURE VOLUME PRESSAVG GPRESSAVG
ENERGY: 400000 0.0000 0.0000 0.0000 0.0000 -13990.7325 2281.3262 0.0000 0.0000 684.5625 -11024.8438 115.4062 -11709.4063 -11023.1775 115.4062 -802.9237 -743.4975 29337.7206 -802.9237 -743.4975
ENERGY: 500000 0.0000 0.0000 0.0000 0.0000 -13680.5876 2159.7446 0.0000 0.0000 887.0509 -10633.7921 149.5425 -11520.8430 -10632.1039 149.7744 -1134.7888 -1067.3901 29440.0601 3.9614 3.8905
TCL: Running 100000 steps at 180 kelvin.
TCL: Setting parameter langevinTemp to 180
TCL: Running for 100000 steps
ETITLE: TS BOND ANGLE DIHED IMPRP ELECT VDW BOUNDARY MISC KINETIC TOTAL TEMP POTENTIAL TOTAL3 TEMPAVG PRESSURE GPRESSURE VOLUME PRESSAVG GPRESSAVG
ENERGY: 500000 0.0000 0.0000 0.0000 0.0000 -13680.5876 2159.7446 0.0000 0.0000 886.6129 -10634.2301 149.4686 -11520.8430 -10632.2545 149.4686 -1122.2819 -1067.8331 29440.0601 -1122.2819 -1067.8331
ENERGY: 600000 0.0000 0.0000 0.0000 0.0000 -13308.5772 2127.4104 0.0000 0.0000 1058.4028 -10122.7640 178.4297 -11181.1668 -10122.0253 179.6819 -33.9623 65.5949 29242.3083 3.3085 3.1272
TCL: Running 100000 steps at 210 kelvin.
TCL: Setting parameter langevinTemp to 210
TCL: Running for 100000 steps
ETITLE: TS BOND ANGLE DIHED IMPRP ELECT VDW BOUNDARY MISC KINETIC TOTAL TEMP POTENTIAL TOTAL3 TEMPAVG PRESSURE GPRESSURE VOLUME PRESSAVG GPRESSAVG
ENERGY: 600000 0.0000 0.0000 0.0000 0.0000 -13308.5772 2127.4104 0.0000 0.0000 1057.8571 -10123.3097 178.3377 -11181.1668 -10121.6153 178.3377 10.1101 64.8975 29242.3083 10.1101 64.8975
ENERGY: 700000 0.0000 0.0000 0.0000 0.0000 -12645.7432 1901.4203 0.0000 0.0000 1284.4178 -9459.9051 216.5321 -10744.3230 -9457.5084 210.1242 -208.3296 -112.5333 29348.7241 3.9569 4.0984
TCL: Running 100000 steps at 240 kelvin.
TCL: Setting parameter langevinTemp to 240
TCL: Running for 100000 steps
ETITLE: TS BOND ANGLE DIHED IMPRP ELECT VDW BOUNDARY MISC KINETIC TOTAL TEMP POTENTIAL TOTAL3 TEMPAVG PRESSURE GPRESSURE VOLUME PRESSAVG GPRESSAVG
ENERGY: 700000 0.0000 0.0000 0.0000 0.0000 -12645.7432 1901.4203 0.0000 0.0000 1283.8049 -9460.5181 216.4288 -10744.3230 -9458.3511 216.4288 -195.6379 -112.2370 29348.7241 -195.6379 -112.2370
ENERGY: 800000 0.0000 0.0000 0.0000 0.0000 -12219.4421 1819.4148 0.0000 0.0000 1456.0966 -8943.9307 245.4744 -10400.0273 -8941.7061 240.0908 522.8277 601.7281 29154.2034 3.4669 3.4532
TCL: Running 100000 steps at 270 kelvin.
TCL: Setting parameter langevinTemp to 270
TCL: Running for 100000 steps
ETITLE: TS BOND ANGLE DIHED IMPRP ELECT VDW BOUNDARY MISC KINETIC TOTAL TEMP POTENTIAL TOTAL3 TEMPAVG PRESSURE GPRESSURE VOLUME PRESSAVG GPRESSAVG
ENERGY: 800000 0.0000 0.0000 0.0000 0.0000 -12219.4421 1819.4148 0.0000 0.0000 1455.3890 -8944.6383 245.3551 -10400.0273 -8942.6751 245.3551 519.8904 601.0188 29154.2034 519.8904 601.0188
ENERGY: 900000 0.0000 0.0000 0.0000 0.0000 -11326.5035 1492.0657 0.0000 0.0000 1575.8643 -8258.5735 265.6653 -9834.4378 -8256.6555 270.6108 -829.2787 -740.6670 30587.2929 2.3844 2.5629
TCL: Running 1000000 steps at 300 kelvin.
TCL: Setting parameter langevinTemp to 300
TCL: Running for 1000000 steps
ETITLE: TS BOND ANGLE DIHED IMPRP ELECT VDW BOUNDARY MISC KINETIC TOTAL TEMP POTENTIAL TOTAL3 TEMPAVG PRESSURE GPRESSURE VOLUME PRESSAVG GPRESSAVG
ENERGY: 900000 0.0000 0.0000 0.0000 0.0000 -11326.5035 1492.0657 0.0000 0.0000 1575.0948 -8259.3430 265.5356 -9834.4378 -8257.2117 265.5356 -831.7599 -742.5636 30587.2929 -831.7599 -742.5636
ENERGY: 1100000 0.0000 0.0000 0.0000 0.0000 -10859.8195 1386.2131 0.0000 0.0000 1782.0201 -7691.5864 300.4199 -9473.6064 -7689.0453 300.4121 -832.9393 -788.5846 31415.9845 3.8282 3.6997
ENERGY: 1300000 0.0000 0.0000 0.0000 0.0000 -10890.6846 1406.8042 0.0000 0.0000 1808.7272 -7675.1532 304.9222 -9483.8804 -7671.8823 300.2150 -678.1337 -564.9095 31384.9075 2.9302 2.8983
ENERGY: 1500000 0.0000 0.0000 0.0000 0.0000 -11080.7880 1537.1450 0.0000 0.0000 1818.7670 -7724.8760 306.6148 -9543.6430 -7723.0632 300.7134 399.3322 430.0199 30658.2831 4.7585 4.6762
ENERGY: 1700000 0.0000 0.0000 0.0000 0.0000 -10936.6665 1450.9069 0.0000 0.0000 1783.8878 -7701.8718 300.7347 -9485.7596 -7698.4145 300.7773 -323.0489 -247.1856 31369.2802 2.8256 2.7074
ENERGY: 1900000 0.0000 0.0000 0.0000 0.0000 -10989.7107 1520.8228 0.0000 0.0000 1718.8988 -7749.9890 289.7786 -9468.8879 -7745.0287 299.9395 585.1096 657.4477 30556.6053 3.1012 3.1722
TCL: Exiting due to exit command.
