Info: SIMULATION PARAMETERS:
Info: TIMESTEP               2
Info: NUMBER OF STEPS        0
Info: STEPS PER CYCLE        10
Info: PERIODIC CELL BASIS 1  39.546 0 0
Info: PERIODIC CELL BASIS 2  0 35.779 0
Info: PERIODIC CELL BASIS 3  0 0 31.061
Info: PERIODIC CELL CENTER   0 0 0
Info: WRAPPING WATERS AROUND PERIODIC BOUNDARIES ON OUTPUT.
Info: WRAPPING ALL CLUSTERS AROUND PERIODIC BOUNDARIES ON OUTPUT.
Info: FIRST LDB TIMESTEP     50
Info: LAST LDB TIMESTEP     -1
Info: HOM BACKGROUND SCALING 1
Info: PME BACKGROUND SCALING 1
Info: MIN ATOMS PER PATCH    40
Info: EMPTY PATCH LOAD       40 ATOMS
Info: INITIAL TEMPERATURE    300
Info: CENTER OF MASS MOVING INITIALLY? NO
Info: DIELECTRIC             1
Info: EXCLUDE                SCALED ONE-FOUR
Info: 1-4 ELECTROSTATICS SCALED BY 0.833333
Info: MODIFIED 1-4 VDW PARAMETERS WILL BE USED
Info: DCD FILENAME           mobley_8052240_equil.dcd
Info: DCD FREQUENCY          100000
Info: DCD FIRST STEP         100000
Info: DCD FILE WILL CONTAIN UNIT CELL DATA
Info: XST FILENAME           mobley_8052240_equil.xst
Info: XST FREQUENCY          100000
Info: NO VELOCITY DCD OUTPUT
Info: NO FORCE DCD OUTPUT
Info: OUTPUT FILENAME        mobley_8052240_equil
Info: BINARY OUTPUT FILES WILL BE USED
Info: RESTART FILENAME       mobley_8052240_equil.restart
Info: RESTART FREQUENCY      100000
Info: BINARY RESTART FILES WILL BE USED
Info: CUTOFF                 9
Info: PAIRLIST DISTANCE      11
Info: PAIRLIST SHRINK RATE   0.01
Info: PAIRLIST GROW RATE     0.01
Info: PAIRLIST TRIGGER       0.3
Info: PAIRLISTS PER CYCLE    2
Info: PAIRLISTS ENABLED
Info: MARGIN                 8
Info: HYDROGEN GROUP CUTOFF  2.5
Info: PATCH DIMENSION        21.5
Info: ENERGY OUTPUT STEPS    100000
Info: ENERGY EVALUATION STEPS    100000
Info: OUTPUT ENERGY PRECISION 4
Info: CROSSTERM ENERGY INCLUDED IN DIHEDRAL
Info: TIMING OUTPUT STEPS    1000000
Info: PRESSURE OUTPUT STEPS  100000
Info: FIXED ATOMS ACTIVE
Info: LANGEVIN DYNAMICS ACTIVE
Info: LANGEVIN TEMPERATURE   30
Info: LANGEVIN USING BBK INTEGRATOR
Info: LANGEVIN DAMPING COEFFICIENT IS 1 INVERSE PS
Info: LANGEVIN DYNAMICS APPLIED TO HYDROGENS
Info: LANGEVIN PISTON PRESSURE CONTROL ACTIVE
Info:        TARGET PRESSURE IS 1.01325 BAR
Info:     OSCILLATION PERIOD IS 50 FS
Info:             DECAY TIME IS 25 FS
Info:     PISTON TEMPERATURE IS 300 K
Info:       PRESSURE CONTROL IS GROUP-BASED
Info:    INITIAL STRAIN RATE IS 0 0 0
Info:       CELL FLUCTUATION IS ISOTROPIC
Info: PARTICLE MESH EWALD (PME) ACTIVE
Info: PME TOLERANCE               1e-06
Info: PME EWALD COEFFICIENT       0.348832
Info: PME INTERPOLATION ORDER     4
Info: PME GRID DIMENSIONS         40 36 32
Info: PME MAXIMUM GRID SPACING    1
Info: FULL ELECTROSTATIC EVALUATION FREQUENCY      2
Info: USING VERLET I (r-RESPA) MTS SCHEME.
Info: C1 SPLITTING OF LONG RANGE ELECTROSTATICS
Info: PLACING ATOMS IN PATCHES BY HYDROGEN GROUPS
Info: RIGID BONDS TO HYDROGEN : ALL
Info:         ERROR TOLERANCE : 1e-08
Info:          MAX ITERATIONS : 100
Info: RIGID WATER USING SETTLE ALGORITHM
Info: RANDOM NUMBER SEED     1743765358
Info: USE HYDROGEN BONDS?    NO
Info: Using AMBER format force field!
Info: AMBER PARM FILE        mobley_8052240.prmtop
Info: COORDINATE PDB         mobley_8052240.pdb
Info: Exclusions will be read from PARM file!
Info: SCNB (VDW SCALING)     2
Info: USING ARITHMETIC MEAN TO COMBINE L-J SIGMA PARAMETERS
Info: BINARY COORDINATES     mobley_8052240_min.coor
Info: SUMMARY OF PARAMETERS:
Info: 8 BONDS
Info: 8 ANGLES
Info: 5 DIHEDRAL
Info: 0 IMPROPER
Info: 0 CROSSTERM
Info: 0 VDW
Info: 28 VDW_PAIRS
Info: 0 NBTHOLE_PAIRS
Info: STRUCTURE SUMMARY:
Info: 2957 ATOMS
Info: 2959 BONDS
Info: 45 ANGLES
Info: 83 DIHEDRALS
Info: 0 IMPROPERS
Info: 0 CROSSTERMS
Info: 3063 EXCLUSIONS
Info: 26 FIXED ATOMS
Info: 2940 RIGID BONDS
Info: 9 RIGID BONDS BETWEEN FIXED ATOMS
Info: 5862 DEGREES OF FREEDOM
Info: 994 HYDROGEN GROUPS
Info: 3 ATOMS IN LARGEST HYDROGEN GROUP
Info: 994 MIGRATION GROUPS
Info: 3 ATOMS IN LARGEST MIGRATION GROUP
Info: 17 HYDROGEN GROUPS WITH ALL ATOMS FIXED
Info: TOTAL MASS = 17824.9 amu
Info: TOTAL CHARGE = 2.23517e-08 e
Info: MASS DENSITY = 0.673502 g/cm^3
Info: ATOM DENSITY = 0.067283 atoms/A^3
Info: ADDED 0 IMPLICIT EXCLUSIONS
Info: NONBONDED TABLE R-SQUARED SPACING: 0.0625
Info: NONBONDED TABLE SIZE: 705 POINTS
Info: REMOVING COM VELOCITY -0.100937 0.0991345 0.106492
TCL: Running for 100000 steps
ETITLE: TS BOND ANGLE DIHED IMPRP ELECT VDW BOUNDARY MISC KINETIC TOTAL TEMP POTENTIAL TOTAL3 TEMPAVG PRESSURE GPRESSURE VOLUME PRESSAVG GPRESSAVG
ENERGY: 0 0.0000 0.0000 0.0000 0.0000 -13801.6002 2375.6250 0.0000 0.0000 1694.8392 -9731.1359 290.9867 -11425.9752 -9730.7805 290.9867 317.3070 350.0398 43948.7163 317.3070 350.0398
ENERGY: 100000 0.0000 0.0000 0.0000 0.0000 -14311.2670 2416.5638 0.0000 0.0000 177.7143 -11716.9889 30.5117 -11894.7032 -11716.5735 30.9426 -396.0926 -346.4164 29453.6446 5.1532 5.1954
TCL: Running 100000 steps at 60 kelvin.
TCL: Setting parameter langevinTemp to 60
TCL: Running for 100000 steps
ETITLE: TS BOND ANGLE DIHED IMPRP ELECT VDW BOUNDARY MISC KINETIC TOTAL TEMP POTENTIAL TOTAL3 TEMPAVG PRESSURE GPRESSURE VOLUME PRESSAVG GPRESSAVG
ENERGY: 100000 0.0000 0.0000 0.0000 0.0000 -14311.2670 2416.5638 0.0000 0.0000 177.6276 -11717.0756 30.4969 -11894.7032 -11716.6589 30.4969 -401.8039 -346.7453 29453.6446 -401.8039 -346.7453
ENERGY: 200000 0.0000 0.0000 0.0000 0.0000 -14289.2538 2452.8064 0.0000 0.0000 353.0549 -11483.3925 60.6159 -11836.4474 -11482.7564 59.8067 213.5277 280.3290 28998.5397 3.6521 3.6673
TCL: Running 100000 steps at 90 kelvin.
TCL: Setting parameter langevinTemp to 90
TCL: Running for 100000 steps
ETITLE: TS BOND ANGLE DIHED IMPRP ELECT VDW BOUNDARY MISC KINETIC TOTAL TEMP POTENTIAL TOTAL3 TEMPAVG PRESSURE GPRESSURE VOLUME PRESSAVG GPRESSAVG
ENERGY: 200000 0.0000 0.0000 0.0000 0.0000 -14289.2538 2452.8064 0.0000 0.0000 352.8788 -11483.5686 60.5857 -11836.4474 -11482.8974 60.5857 236.2631 280.2232 28998.5397 236.2631 280.2232
ENERGY: 300000 0.0000 0.0000 0.0000 0.0000 -14078.5440 2321.0103 0.0000 0.0000 534.4284 -11223.1053 91.7559 -11757.5337 -11221.5899 89.9617 -581.9784 -540.5025 29243.5841 4.4411 4.4443
TCL: Running 100000 steps at 120 kelvin.
TCL: Setting parameter langevinTemp to 120
TCL: Running for 100000 steps
ETITLE: TS BOND ANGLE DIHED IMPRP ELECT VDW BOUNDARY MISC KINETIC TOTAL TEMP POTENTIAL TOTAL3 TEMPAVG PRESSURE GPRESSURE VOLUME PRESSAVG GPRESSAVG
ENERGY: 300000 0.0000 0.0000 0.0000 0.0000 -14078.5440 2321.0103 0.0000 0.0000 534.1782 -11223.3555 91.7130 -11757.5337 -11222.1329 91.7130 -591.5687 -540.2510 29243.5841 -591.5687 -540.2510
ENERGY: 400000 0.0000 0.0000 0.0000 0.0000 -13958.7234 2329.7978 0.0000 0.0000 698.9212 -10930.0045 119.9977 -11628.9257 -10928.1459 120.0812 -2.3832 9.7137 29182.4684 3.2538 3.1328
TCL: Running 100000 steps at 150 kelvin.
TCL: Setting parameter langevinTemp to 150
TCL: Running for 100000 steps
ETITLE: TS BOND ANGLE DIHED IMPRP ELECT VDW BOUNDARY MISC KINETIC TOTAL TEMP POTENTIAL TOTAL3 TEMPAVG PRESSURE GPRESSURE VOLUME PRESSAVG GPRESSAVG
ENERGY: 400000 0.0000 0.0000 0.0000 0.0000 -13958.7234 2329.7978 0.0000 0.0000 698.5669 -10930.3588 119.9368 -11628.9257 -10929.0385 119.9368 -43.1407 10.2446 29182.4684 -43.1407 10.2446
ENERGY: 500000 0.0000 0.0000 0.0000 0.0000 -13732.4638 2296.7729 0.0000 0.0000 871.7835 -10563.9074 149.6764 -11435.6909 -10562.1930 150.0211 325.8142 371.6131 29349.5987 4.9473 4.8852
TCL: Running 100000 steps at 180 kelvin.
TCL: Setting parameter langevinTemp to 180
TCL: Running for 100000 steps
ETITLE: TS BOND ANGLE DIHED IMPRP ELECT VDW BOUNDARY MISC KINETIC TOTAL TEMP POTENTIAL TOTAL3 TEMPAVG PRESSURE GPRESSURE VOLUME PRESSAVG GPRESSAVG
ENERGY: 500000 0.0000 0.0000 0.0000 0.0000 -13732.4638 2296.7729 0.0000 0.0000 871.3636 -10564.3273 149.6043 -11435.6909 -10562.9250 149.6043 306.0361 370.6079 29349.5987 306.0361 370.6079
ENERGY: 600000 0.0000 0.0000 0.0000 0.0000 -13248.5358 2071.9015 0.0000 0.0000 1046.6952 -10129.9391 179.7069 -11176.6343 -10126.5423 179.8944 -408.8512 -378.7430 29089.7174 4.2170 4.1393
TCL: Running 100000 steps at 210 kelvin.
TCL: Setting parameter langevinTemp to 210
TCL: Running for 100000 steps
ETITLE: TS BOND ANGLE DIHED IMPRP ELECT VDW BOUNDARY MISC KINETIC TOTAL TEMP POTENTIAL TOTAL3 TEMPAVG PRESSURE GPRESSURE VOLUME PRESSAVG GPRESSAVG
ENERGY: 600000 0.0000 0.0000 0.0000 0.0000 -13248.5358 2071.9015 0.0000 0.0000 1046.1613 -10130.4730 179.6153 -11176.6343 -10128.4959 179.6153 -436.6071 -377.9706 29089.7174 -436.6071 -377.9706
ENERGY: 700000 0.0000 0.0000 0.0000 0.0000 -12636.1031 1931.7837 0.0000 0.0000 1229.1785 -9475.1408 211.0375 -10704.3194 -9473.8027 209.7347 395.0398 485.5382 28745.3732 3.8311 3.9030
TCL: Running 100000 steps at 240 kelvin.
TCL: Setting parameter langevinTemp to 240
TCL: Running for 100000 steps
ETITLE: TS BOND ANGLE DIHED IMPRP ELECT VDW BOUNDARY MISC KINETIC TOTAL TEMP POTENTIAL TOTAL3 TEMPAVG PRESSURE GPRESSURE VOLUME PRESSAVG GPRESSAVG
ENERGY: 700000 0.0000 0.0000 0.0000 0.0000 -12636.1031 1931.7837 0.0000 0.0000 1228.5843 -9475.7351 210.9354 -10704.3194 -9473.7490 210.9354 396.8471 483.9117 28745.3732 396.8471 483.9117
ENERGY: 800000 0.0000 0.0000 0.0000 0.0000 -11912.7612 1614.1562 0.0000 0.0000 1439.4047 -8859.2003 247.1312 -10298.6050 -8855.9224 239.5961 -766.5688 -667.2740 29131.2227 3.6830 3.4852
TCL: Running 100000 steps at 270 kelvin.
TCL: Setting parameter langevinTemp to 270
TCL: Running for 100000 steps
ETITLE: TS BOND ANGLE DIHED IMPRP ELECT VDW BOUNDARY MISC KINETIC TOTAL TEMP POTENTIAL TOTAL3 TEMPAVG PRESSURE GPRESSURE VOLUME PRESSAVG GPRESSAVG
ENERGY: 800000 0.0000 0.0000 0.0000 0.0000 -11912.7612 1614.1562 0.0000 0.0000 1438.6822 -8859.9228 247.0071 -10298.6050 -8857.6433 247.0071 -739.8556 -665.7591 29131.2227 -739.8556 -665.7591
ENERGY: 900000 0.0000 0.0000 0.0000 0.0000 -11438.8124 1550.3978 0.0000 0.0000 1587.3479 -8301.0667 272.5315 -9888.4146 -8295.6821 270.2879 -175.7084 -128.5616 29726.6460 3.4123 3.4814
TCL: Running 1000000 steps at 300 kelvin.
TCL: Setting parameter langevinTemp to 300
TCL: Running for 1000000 steps
ETITLE: TS BOND ANGLE DIHED IMPRP ELECT VDW BOUNDARY MISC KINETIC TOTAL TEMP POTENTIAL TOTAL3 TEMPAVG PRESSURE GPRESSURE VOLUME PRESSAVG GPRESSAVG
ENERGY: 900000 0.0000 0.0000 0.0000 0.0000 -11438.8124 1550.3978 0.0000 0.0000 1586.5607 -8301.8539 272.3963 -9888.4146 -8299.8799 272.3963 -211.2261 -126.7083 29726.6460 -211.2261 -126.7083
ENERGY: 1100000 0.0000 0.0000 0.0000 0.0000 -10912.7866 1444.1040 0.0000 0.0000 1782.5499 -7686.1327 306.0457 -9468.6826 -7682.7588 301.0825 -8.4442 63.7094 30594.7058 2.8692 2.8665
ENERGY: 1300000 0.0000 0.0000 0.0000 0.0000 -10898.0965 1412.1385 0.0000 0.0000 1722.4144 -7763.5435 295.7210 -9485.9580 -7757.3891 300.1544 -202.9317 -125.7086 30258.3351 3.2561 3.2300
ENERGY: 1500000 0.0000 0.0000 0.0000 0.0000 -10844.2493 1392.8112 0.0000 0.0000 1750.8124 -7700.6257 300.5967 -9451.4381 -7697.0944 300.7239 -345.3287 -244.4525 30316.1658 3.3932 3.4362
ENERGY: 1700000 0.0000 0.0000 0.0000 0.0000 -10851.8773 1480.1971 0.0000 0.0000 1759.9643 -7611.7160 302.1680 -9371.6802 -7610.2254 300.5660 592.5163 648.3464 30378.5617 2.7862 2.7940
ENERGY: 1900000 0.0000 0.0000 0.0000 0.0000 -11043.3146 1450.9582 0.0000 0.0000 1748.0145 -7844.3419 300.1163 -9592.3564 -7841.0211 300.6172 60.6495 183.5507 29792.1767 3.8382 3.7490
TCL: Exiting due to exit command.
