Info: SIMULATION PARAMETERS:
Info: TIMESTEP               2
Info: NUMBER OF STEPS        0
Info: STEPS PER CYCLE        10
Info: PERIODIC CELL BASIS 1  39.806 0 0
Info: PERIODIC CELL BASIS 2  0 36.762 0
Info: PERIODIC CELL BASIS 3  0 0 30.728
Info: PERIODIC CELL CENTER   0 0 0
Info: WRAPPING WATERS AROUND PERIODIC BOUNDARIES ON OUTPUT.
Info: WRAPPING ALL CLUSTERS AROUND PERIODIC BOUNDARIES ON OUTPUT.
Info: FIRST LDB TIMESTEP     50
Info: LAST LDB TIMESTEP     -1
Info: HOM BACKGROUND SCALING 1
Info: PME BACKGROUND SCALING 1
Info: MIN ATOMS PER PATCH    40
Info: EMPTY PATCH LOAD       40 ATOMS
Info: INITIAL TEMPERATURE    300
Info: CENTER OF MASS MOVING INITIALLY? NO
Info: DIELECTRIC             1
Info: EXCLUDE                SCALED ONE-FOUR
Info: 1-4 ELECTROSTATICS SCALED BY 0.833333
Info: MODIFIED 1-4 VDW PARAMETERS WILL BE USED
Info: DCD FILENAME           mobley_5510474_equil.dcd
Info: DCD FREQUENCY          100000
Info: DCD FIRST STEP         100000
Info: DCD FILE WILL CONTAIN UNIT CELL DATA
Info: XST FILENAME           mobley_5510474_equil.xst
Info: XST FREQUENCY          100000
Info: NO VELOCITY DCD OUTPUT
Info: NO FORCE DCD OUTPUT
Info: OUTPUT FILENAME        mobley_5510474_equil
Info: BINARY OUTPUT FILES WILL BE USED
Info: RESTART FILENAME       mobley_5510474_equil.restart
Info: RESTART FREQUENCY      100000
Info: BINARY RESTART FILES WILL BE USED
Info: CUTOFF                 9
Info: PAIRLIST DISTANCE      11
Info: PAIRLIST SHRINK RATE   0.01
Info: PAIRLIST GROW RATE     0.01
Info: PAIRLIST TRIGGER       0.3
Info: PAIRLISTS PER CYCLE    2
Info: PAIRLISTS ENABLED
Info: MARGIN                 8
Info: HYDROGEN GROUP CUTOFF  2.5
Info: PATCH DIMENSION        21.5
Info: ENERGY OUTPUT STEPS    100000
Info: ENERGY EVALUATION STEPS    100000
Info: OUTPUT ENERGY PRECISION 4
Info: CROSSTERM ENERGY INCLUDED IN DIHEDRAL
Info: TIMING OUTPUT STEPS    1000000
Info: PRESSURE OUTPUT STEPS  100000
Info: FIXED ATOMS ACTIVE
Info: LANGEVIN DYNAMICS ACTIVE
Info: LANGEVIN TEMPERATURE   30
Info: LANGEVIN USING BBK INTEGRATOR
Info: LANGEVIN DAMPING COEFFICIENT IS 1 INVERSE PS
Info: LANGEVIN DYNAMICS APPLIED TO HYDROGENS
Info: LANGEVIN PISTON PRESSURE CONTROL ACTIVE
Info:        TARGET PRESSURE IS 1.01325 BAR
Info:     OSCILLATION PERIOD IS 50 FS
Info:             DECAY TIME IS 25 FS
Info:     PISTON TEMPERATURE IS 300 K
Info:       PRESSURE CONTROL IS GROUP-BASED
Info:    INITIAL STRAIN RATE IS 0 0 0
Info:       CELL FLUCTUATION IS ISOTROPIC
Info: PARTICLE MESH EWALD (PME) ACTIVE
Info: PME TOLERANCE               1e-06
Info: PME EWALD COEFFICIENT       0.348832
Info: PME INTERPOLATION ORDER     4
Info: PME GRID DIMENSIONS         40 40 32
Info: PME MAXIMUM GRID SPACING    1
Info: FULL ELECTROSTATIC EVALUATION FREQUENCY      2
Info: USING VERLET I (r-RESPA) MTS SCHEME.
Info: C1 SPLITTING OF LONG RANGE ELECTROSTATICS
Info: PLACING ATOMS IN PATCHES BY HYDROGEN GROUPS
Info: RIGID BONDS TO HYDROGEN : ALL
Info:         ERROR TOLERANCE : 1e-08
Info:          MAX ITERATIONS : 100
Info: RIGID WATER USING SETTLE ALGORITHM
Info: RANDOM NUMBER SEED     1743764899
Info: USE HYDROGEN BONDS?    NO
Info: Using AMBER format force field!
Info: AMBER PARM FILE        mobley_5510474.prmtop
Info: COORDINATE PDB         mobley_5510474.pdb
Info: Exclusions will be read from PARM file!
Info: SCNB (VDW SCALING)     2
Info: USING ARITHMETIC MEAN TO COMBINE L-J SIGMA PARAMETERS
Info: BINARY COORDINATES     mobley_5510474_min.coor
Info: SUMMARY OF PARAMETERS:
Info: 6 BONDS
Info: 5 ANGLES
Info:   5 HARMONIC
Info:   0 COSINE-BASED
Info: 3 DIHEDRAL
Info: 0 IMPROPER
Info: 0 CROSSTERM
Info: 0 VDW
Info: 21 VDW_PAIRS
Info: 0 NBTHOLE_PAIRS
Info: STRUCTURE SUMMARY:
Info: 2980 ATOMS
Info: 2982 BONDS
Info: 38 ANGLES
Info: 68 DIHEDRALS
Info: 0 IMPROPERS
Info: 0 CROSSTERMS
Info: 3067 EXCLUSIONS
Info: 22 FIXED ATOMS
Info: 2962 RIGID BONDS
Info: 4 RIGID BONDS BETWEEN FIXED ATOMS
Info: 5916 DEGREES OF FREEDOM
Info: 1004 HYDROGEN GROUPS
Info: 3 ATOMS IN LARGEST HYDROGEN GROUP
Info: 1004 MIGRATION GROUPS
Info: 3 ATOMS IN LARGEST MIGRATION GROUP
Info: 18 HYDROGEN GROUPS WITH ALL ATOMS FIXED
Info: TOTAL MASS = 18085.7 amu
Info: TOTAL CHARGE = -9.99719e-05 e
Info: MASS DENSITY = 0.667903 g/cm^3
Info: ATOM DENSITY = 0.0662726 atoms/A^3
Info: ADDED 0 IMPLICIT EXCLUSIONS
Info: NONBONDED TABLE R-SQUARED SPACING: 0.0625
Info: NONBONDED TABLE SIZE: 705 POINTS
Info: REMOVING COM VELOCITY -0.109412 0.0767056 -0.123388
TCL: Running for 100000 steps
ETITLE: TS BOND ANGLE DIHED IMPRP ELECT VDW BOUNDARY MISC KINETIC TOTAL TEMP POTENTIAL TOTAL3 TEMPAVG PRESSURE GPRESSURE VOLUME PRESSAVG GPRESSAVG
ENERGY: 0 0.0000 0.0000 0.0000 0.0000 -13776.7070 2416.5587 0.0000 0.0000 1707.9397 -9652.2086 290.5593 -11360.1483 -9651.8875 290.5593 350.6474 375.8436 44965.7626 350.6474 375.8436
ENERGY: 100000 0.0000 0.0000 0.0000 0.0000 -14380.7069 2517.8953 0.0000 0.0000 180.8151 -11681.9965 30.7607 -11862.8116 -11681.1584 30.8726 341.5260 416.8851 28943.4826 3.8423 3.7458
TCL: Running 100000 steps at 60 kelvin.
TCL: Setting parameter langevinTemp to 60
TCL: Running for 100000 steps
ETITLE: TS BOND ANGLE DIHED IMPRP ELECT VDW BOUNDARY MISC KINETIC TOTAL TEMP POTENTIAL TOTAL3 TEMPAVG PRESSURE GPRESSURE VOLUME PRESSAVG GPRESSAVG
ENERGY: 100000 0.0000 0.0000 0.0000 0.0000 -14380.7069 2517.8953 0.0000 0.0000 180.7263 -11682.0854 30.7456 -11862.8116 -11681.7568 30.7456 352.0893 417.2053 28943.4826 352.0893 417.2053
ENERGY: 200000 0.0000 0.0000 0.0000 0.0000 -14232.0169 2442.1024 0.0000 0.0000 360.9158 -11428.9987 61.4000 -11789.9145 -11428.0381 59.9520 143.4369 225.4698 28824.0163 4.3215 4.2636
TCL: Running 100000 steps at 90 kelvin.
TCL: Setting parameter langevinTemp to 90
TCL: Running for 100000 steps
ETITLE: TS BOND ANGLE DIHED IMPRP ELECT VDW BOUNDARY MISC KINETIC TOTAL TEMP POTENTIAL TOTAL3 TEMPAVG PRESSURE GPRESSURE VOLUME PRESSAVG GPRESSAVG
ENERGY: 200000 0.0000 0.0000 0.0000 0.0000 -14232.0169 2442.1024 0.0000 0.0000 360.7427 -11429.1718 61.3705 -11789.9145 -11428.4368 61.3705 165.4576 225.3509 28824.0163 165.4576 225.3509
ENERGY: 300000 0.0000 0.0000 0.0000 0.0000 -14083.2120 2394.9759 0.0000 0.0000 517.9221 -11170.3140 88.1103 -11688.2361 -11169.1151 90.0536 126.5343 186.4448 28759.5900 3.4617 3.4178
TCL: Running 100000 steps at 120 kelvin.
TCL: Setting parameter langevinTemp to 120
TCL: Running for 100000 steps
ETITLE: TS BOND ANGLE DIHED IMPRP ELECT VDW BOUNDARY MISC KINETIC TOTAL TEMP POTENTIAL TOTAL3 TEMPAVG PRESSURE GPRESSURE VOLUME PRESSAVG GPRESSAVG
ENERGY: 300000 0.0000 0.0000 0.0000 0.0000 -14083.2120 2394.9759 0.0000 0.0000 517.6538 -11170.5823 88.0646 -11688.2361 -11169.5404 88.0646 133.2219 185.9581 28759.5900 133.2219 185.9581
ENERGY: 400000 0.0000 0.0000 0.0000 0.0000 -13852.6672 2301.6049 0.0000 0.0000 708.6723 -10842.3899 120.5612 -11551.0622 -10841.1368 119.8204 -175.6175 -111.2624 28853.9819 4.3162 4.2083
TCL: Running 100000 steps at 150 kelvin.
TCL: Setting parameter langevinTemp to 150
TCL: Running for 100000 steps
ETITLE: TS BOND ANGLE DIHED IMPRP ELECT VDW BOUNDARY MISC KINETIC TOTAL TEMP POTENTIAL TOTAL3 TEMPAVG PRESSURE GPRESSURE VOLUME PRESSAVG GPRESSAVG
ENERGY: 400000 0.0000 0.0000 0.0000 0.0000 -13852.6672 2301.6049 0.0000 0.0000 708.3156 -10842.7466 120.5006 -11551.0622 -10841.3750 120.5006 -167.9660 -111.0906 28853.9819 -167.9660 -111.0906
ENERGY: 500000 0.0000 0.0000 0.0000 0.0000 -13579.6667 2180.3833 0.0000 0.0000 877.7037 -10521.5797 149.3173 -11399.2835 -10519.2924 150.1243 -543.7728 -505.5791 29090.3445 3.7479 3.7728
TCL: Running 100000 steps at 180 kelvin.
TCL: Setting parameter langevinTemp to 180
TCL: Running for 100000 steps
ETITLE: TS BOND ANGLE DIHED IMPRP ELECT VDW BOUNDARY MISC KINETIC TOTAL TEMP POTENTIAL TOTAL3 TEMPAVG PRESSURE GPRESSURE VOLUME PRESSAVG GPRESSAVG
ENERGY: 500000 0.0000 0.0000 0.0000 0.0000 -13579.6667 2180.3833 0.0000 0.0000 877.2503 -10522.0332 149.2402 -11399.2835 -10520.1031 149.2402 -555.7247 -505.5603 29090.3445 -555.7247 -505.5603
ENERGY: 600000 0.0000 0.0000 0.0000 0.0000 -13238.4332 2148.6759 0.0000 0.0000 1036.3008 -10053.4564 176.2983 -11089.7572 -10052.6821 180.0937 331.4135 371.7377 29120.2591 3.3531 3.4407
TCL: Running 100000 steps at 210 kelvin.
TCL: Setting parameter langevinTemp to 210
TCL: Running for 100000 steps
ETITLE: TS BOND ANGLE DIHED IMPRP ELECT VDW BOUNDARY MISC KINETIC TOTAL TEMP POTENTIAL TOTAL3 TEMPAVG PRESSURE GPRESSURE VOLUME PRESSAVG GPRESSAVG
ENERGY: 600000 0.0000 0.0000 0.0000 0.0000 -13238.4332 2148.6759 0.0000 0.0000 1035.7810 -10053.9763 176.2098 -11089.7572 -10051.9398 176.2098 326.1437 370.3714 29120.2591 326.1437 370.3714
ENERGY: 700000 0.0000 0.0000 0.0000 0.0000 -12676.1456 1981.2788 0.0000 0.0000 1241.1085 -9453.7582 211.1407 -10694.8667 -9453.2608 209.7372 325.7703 412.6732 29257.5240 3.7705 3.8602
TCL: Running 100000 steps at 240 kelvin.
TCL: Setting parameter langevinTemp to 240
TCL: Running for 100000 steps
ETITLE: TS BOND ANGLE DIHED IMPRP ELECT VDW BOUNDARY MISC KINETIC TOTAL TEMP POTENTIAL TOTAL3 TEMPAVG PRESSURE GPRESSURE VOLUME PRESSAVG GPRESSAVG
ENERGY: 700000 0.0000 0.0000 0.0000 0.0000 -12676.1456 1981.2788 0.0000 0.0000 1240.5104 -9454.3563 211.0390 -10694.8667 -9451.8727 211.0390 348.6334 410.3592 29257.5240 348.6334 410.3592
ENERGY: 800000 0.0000 0.0000 0.0000 0.0000 -11933.0665 1763.9479 0.0000 0.0000 1365.0782 -8804.0404 232.2308 -10169.1186 -8801.2391 240.1495 229.2303 329.9551 29497.2830 2.3231 2.2660
TCL: Running 100000 steps at 270 kelvin.
TCL: Setting parameter langevinTemp to 270
TCL: Running for 100000 steps
ETITLE: TS BOND ANGLE DIHED IMPRP ELECT VDW BOUNDARY MISC KINETIC TOTAL TEMP POTENTIAL TOTAL3 TEMPAVG PRESSURE GPRESSURE VOLUME PRESSAVG GPRESSAVG
ENERGY: 800000 0.0000 0.0000 0.0000 0.0000 -11933.0665 1763.9479 0.0000 0.0000 1364.3677 -8804.7508 232.1099 -10169.1186 -8802.6174 232.1099 249.5013 329.5466 29497.2830 249.5013 329.5466
ENERGY: 900000 0.0000 0.0000 0.0000 0.0000 -11382.0237 1588.0660 0.0000 0.0000 1637.5130 -8156.4447 278.5781 -9793.9577 -8155.3919 270.0059 266.5002 340.6206 29903.9349 3.0349 3.0654
TCL: Running 1000000 steps at 300 kelvin.
TCL: Setting parameter langevinTemp to 300
TCL: Running for 1000000 steps
ETITLE: TS BOND ANGLE DIHED IMPRP ELECT VDW BOUNDARY MISC KINETIC TOTAL TEMP POTENTIAL TOTAL3 TEMPAVG PRESSURE GPRESSURE VOLUME PRESSAVG GPRESSAVG
ENERGY: 900000 0.0000 0.0000 0.0000 0.0000 -11382.0237 1588.0660 0.0000 0.0000 1636.7151 -8157.2426 278.4424 -9793.9577 -8154.9521 278.4424 265.7301 338.2372 29903.9349 265.7301 338.2372
ENERGY: 1100000 0.0000 0.0000 0.0000 0.0000 -10823.1055 1453.7474 0.0000 0.0000 1758.6827 -7610.6754 299.1918 -9369.3580 -7608.3968 300.0666 -11.5131 46.8124 30846.6087 3.3003 3.3474
ENERGY: 1300000 0.0000 0.0000 0.0000 0.0000 -10786.1828 1483.3096 0.0000 0.0000 1777.2950 -7525.5782 302.3582 -9302.8732 -7523.0251 300.4042 747.0078 802.7345 30325.9205 2.0600 1.8897
ENERGY: 1500000 0.0000 0.0000 0.0000 0.0000 -10741.8845 1390.3048 0.0000 0.0000 1776.6887 -7574.8910 302.2550 -9351.5797 -7572.4520 299.8787 -208.1420 -133.8614 30767.9288 2.1324 2.2778
ENERGY: 1700000 0.0000 0.0000 0.0000 0.0000 -10661.5219 1373.3501 0.0000 0.0000 1719.5200 -7568.6518 292.5294 -9288.1718 -7566.1351 300.8149 -497.6093 -369.3487 31237.7587 4.3497 4.3501
ENERGY: 1900000 0.0000 0.0000 0.0000 0.0000 -10980.3055 1522.5169 0.0000 0.0000 1797.3371 -7660.4515 305.7678 -9457.7886 -7655.6099 300.3481 699.7682 750.0519 30216.3180 2.2673 2.4486
TCL: Exiting due to exit command.
