Info: SIMULATION PARAMETERS:
Info: TIMESTEP               2
Info: NUMBER OF STEPS        0
Info: STEPS PER CYCLE        10
Info: PERIODIC CELL BASIS 1  37.968 0 0
Info: PERIODIC CELL BASIS 2  0 35.411 0
Info: PERIODIC CELL BASIS 3  0 0 31.855
Info: PERIODIC CELL CENTER   0 0 0
Info: WRAPPING WATERS AROUND PERIODIC BOUNDARIES ON OUTPUT.
Info: WRAPPING ALL CLUSTERS AROUND PERIODIC BOUNDARIES ON OUTPUT.
Info: FIRST LDB TIMESTEP     50
Info: LAST LDB TIMESTEP     -1
Info: HOM BACKGROUND SCALING 1
Info: PME BACKGROUND SCALING 1
Info: MIN ATOMS PER PATCH    40
Info: EMPTY PATCH LOAD       40 ATOMS
Info: INITIAL TEMPERATURE    300
Info: CENTER OF MASS MOVING INITIALLY? NO
Info: DIELECTRIC             1
Info: EXCLUDE                SCALED ONE-FOUR
Info: 1-4 ELECTROSTATICS SCALED BY 0.833333
Info: MODIFIED 1-4 VDW PARAMETERS WILL BE USED
Info: DCD FILENAME           mobley_1821184_equil.dcd
Info: DCD FREQUENCY          100000
Info: DCD FIRST STEP         100000
Info: DCD FILE WILL CONTAIN UNIT CELL DATA
Info: XST FILENAME           mobley_1821184_equil.xst
Info: XST FREQUENCY          100000
Info: NO VELOCITY DCD OUTPUT
Info: NO FORCE DCD OUTPUT
Info: OUTPUT FILENAME        mobley_1821184_equil
Info: BINARY OUTPUT FILES WILL BE USED
Info: RESTART FILENAME       mobley_1821184_equil.restart
Info: RESTART FREQUENCY      100000
Info: BINARY RESTART FILES WILL BE USED
Info: CUTOFF                 9
Info: PAIRLIST DISTANCE      11
Info: PAIRLIST SHRINK RATE   0.01
Info: PAIRLIST GROW RATE     0.01
Info: PAIRLIST TRIGGER       0.3
Info: PAIRLISTS PER CYCLE    2
Info: PAIRLISTS ENABLED
Info: MARGIN                 8
Info: HYDROGEN GROUP CUTOFF  2.5
Info: PATCH DIMENSION        21.5
Info: ENERGY OUTPUT STEPS    100000
Info: ENERGY EVALUATION STEPS    100000
Info: OUTPUT ENERGY PRECISION 4
Info: CROSSTERM ENERGY INCLUDED IN DIHEDRAL
Info: TIMING OUTPUT STEPS    1000000
Info: PRESSURE OUTPUT STEPS  100000
Info: FIXED ATOMS ACTIVE
Info: LANGEVIN DYNAMICS ACTIVE
Info: LANGEVIN TEMPERATURE   30
Info: LANGEVIN USING BBK INTEGRATOR
Info: LANGEVIN DAMPING COEFFICIENT IS 1 INVERSE PS
Info: LANGEVIN DYNAMICS APPLIED TO HYDROGENS
Info: LANGEVIN PISTON PRESSURE CONTROL ACTIVE
Info:        TARGET PRESSURE IS 1.01325 BAR
Info:     OSCILLATION PERIOD IS 50 FS
Info:             DECAY TIME IS 25 FS
Info:     PISTON TEMPERATURE IS 300 K
Info:       PRESSURE CONTROL IS GROUP-BASED
Info:    INITIAL STRAIN RATE IS 0 0 0
Info:       CELL FLUCTUATION IS ISOTROPIC
Info: PARTICLE MESH EWALD (PME) ACTIVE
Info: PME TOLERANCE               1e-06
Info: PME EWALD COEFFICIENT       0.348832
Info: PME INTERPOLATION ORDER     4
Info: PME GRID DIMENSIONS         40 36 32
Info: PME MAXIMUM GRID SPACING    1
Info: FULL ELECTROSTATIC EVALUATION FREQUENCY      2
Info: USING VERLET I (r-RESPA) MTS SCHEME.
Info: C1 SPLITTING OF LONG RANGE ELECTROSTATICS
Info: PLACING ATOMS IN PATCHES BY HYDROGEN GROUPS
Info: RIGID BONDS TO HYDROGEN : ALL
Info:         ERROR TOLERANCE : 1e-08
Info:          MAX ITERATIONS : 100
Info: RIGID WATER USING SETTLE ALGORITHM
Info: RANDOM NUMBER SEED     1743742895
Info: USE HYDROGEN BONDS?    NO
Info: Using AMBER format force field!
Info: AMBER PARM FILE        mobley_1821184.prmtop
Info: COORDINATE PDB         mobley_1821184.pdb
Info: Exclusions will be read from PARM file!
Info: SCNB (VDW SCALING)     2
Info: USING ARITHMETIC MEAN TO COMBINE L-J SIGMA PARAMETERS
Info: BINARY COORDINATES     mobley_1821184_min.coor
Info: SUMMARY OF PARAMETERS:
Info: 12 BONDS
Info: 15 ANGLES
Info:   15 HARMONIC
Info:   0 COSINE-BASED
Info: 7 DIHEDRAL
Info: 0 IMPROPER
Info: 0 CROSSTERM
Info: 0 VDW
Info: 45 VDW_PAIRS
Info: 0 NBTHOLE_PAIRS
Info: STRUCTURE SUMMARY:
Info: 2968 ATOMS
Info: 2969 BONDS
Info: 33 ANGLES
Info: 55 DIHEDRALS
Info: 0 IMPROPERS
Info: 0 CROSSTERMS
Info: 3040 EXCLUSIONS
Info: 19 FIXED ATOMS
Info: 2958 RIGID BONDS
Info: 9 RIGID BONDS BETWEEN FIXED ATOMS
Info: 5898 DEGREES OF FREEDOM
Info: 993 HYDROGEN GROUPS
Info: 4 ATOMS IN LARGEST HYDROGEN GROUP
Info: 993 MIGRATION GROUPS
Info: 4 ATOMS IN LARGEST MIGRATION GROUP
Info: 10 HYDROGEN GROUPS WITH ALL ATOMS FIXED
Info: TOTAL MASS = 17840.9 amu
Info: TOTAL CHARGE = 9.99868e-05 e
Info: MASS DENSITY = 0.691739 g/cm^3
Info: ATOM DENSITY = 0.0692995 atoms/A^3
Info: ADDED 0 IMPLICIT EXCLUSIONS
Info: NONBONDED TABLE R-SQUARED SPACING: 0.0625
Info: NONBONDED TABLE SIZE: 705 POINTS
Info: REMOVING COM VELOCITY 0.0661638 0.127697 -0.0456865
TCL: Running for 100000 steps
ETITLE: TS BOND ANGLE DIHED IMPRP ELECT VDW BOUNDARY MISC KINETIC TOTAL TEMP POTENTIAL TOTAL3 TEMPAVG PRESSURE GPRESSURE VOLUME PRESSAVG GPRESSAVG
ENERGY: 0 0.0000 0.0000 0.0000 0.0000 -13806.7441 2399.2480 0.0000 0.0000 1718.3117 -9689.1844 293.2159 -11407.4961 -9688.8480 293.2159 356.1503 383.2601 42828.5648 356.1503 383.2601
ENERGY: 100000 0.0000 0.0000 0.0000 0.0000 -14234.2899 2402.4278 0.0000 0.0000 177.3872 -11654.4749 30.2697 -11831.8621 -11653.7182 30.8602 -704.0720 -626.0344 28968.7206 3.0452 3.0947
TCL: Running 100000 steps at 60 kelvin.
TCL: Setting parameter langevinTemp to 60
TCL: Running for 100000 steps
ETITLE: TS BOND ANGLE DIHED IMPRP ELECT VDW BOUNDARY MISC KINETIC TOTAL TEMP POTENTIAL TOTAL3 TEMPAVG PRESSURE GPRESSURE VOLUME PRESSAVG GPRESSAVG
ENERGY: 100000 0.0000 0.0000 0.0000 0.0000 -14234.2899 2402.4278 0.0000 0.0000 177.3017 -11654.5605 30.2551 -11831.8621 -11654.1178 30.2551 -692.1342 -625.8216 28968.7206 -692.1342 -625.8216
ENERGY: 200000 0.0000 0.0000 0.0000 0.0000 -14271.9063 2522.5423 0.0000 0.0000 344.6421 -11404.7220 58.8104 -11749.3640 -11403.7069 59.9824 787.3740 836.1195 28655.6982 2.7846 2.7092
TCL: Running 100000 steps at 90 kelvin.
TCL: Setting parameter langevinTemp to 90
TCL: Running for 100000 steps
ETITLE: TS BOND ANGLE DIHED IMPRP ELECT VDW BOUNDARY MISC KINETIC TOTAL TEMP POTENTIAL TOTAL3 TEMPAVG PRESSURE GPRESSURE VOLUME PRESSAVG GPRESSAVG
ENERGY: 200000 0.0000 0.0000 0.0000 0.0000 -14271.9063 2522.5423 0.0000 0.0000 344.4658 -11404.8983 58.7803 -11749.3640 -11404.3538 58.7803 787.1999 836.4556 28655.6982 787.1999 836.4556
ENERGY: 300000 0.0000 0.0000 0.0000 0.0000 -14178.6618 2494.4699 0.0000 0.0000 519.8088 -11164.3831 88.7011 -11684.1919 -11163.6293 90.0149 907.4091 949.8003 28443.6113 3.7791 3.6350
TCL: Running 100000 steps at 120 kelvin.
TCL: Setting parameter langevinTemp to 120
TCL: Running for 100000 steps
ETITLE: TS BOND ANGLE DIHED IMPRP ELECT VDW BOUNDARY MISC KINETIC TOTAL TEMP POTENTIAL TOTAL3 TEMPAVG PRESSURE GPRESSURE VOLUME PRESSAVG GPRESSAVG
ENERGY: 300000 0.0000 0.0000 0.0000 0.0000 -14178.6618 2494.4699 0.0000 0.0000 519.5417 -11164.6502 88.6556 -11684.1919 -11163.5716 88.6556 901.4906 949.8275 28443.6113 901.4906 949.8275
ENERGY: 400000 0.0000 0.0000 0.0000 0.0000 -13841.2201 2293.7950 0.0000 0.0000 695.5795 -10851.8456 118.6950 -11547.4251 -10849.9251 119.7795 -256.8391 -178.7100 28641.7987 4.9910 4.8639
TCL: Running 100000 steps at 150 kelvin.
TCL: Setting parameter langevinTemp to 150
TCL: Running for 100000 steps
ETITLE: TS BOND ANGLE DIHED IMPRP ELECT VDW BOUNDARY MISC KINETIC TOTAL TEMP POTENTIAL TOTAL3 TEMPAVG PRESSURE GPRESSURE VOLUME PRESSAVG GPRESSAVG
ENERGY: 400000 0.0000 0.0000 0.0000 0.0000 -13841.2201 2293.7950 0.0000 0.0000 695.2169 -10852.2082 118.6331 -11547.4251 -10850.7753 118.6331 -226.7970 -178.6505 28641.7987 -226.7970 -178.6505
ENERGY: 500000 0.0000 0.0000 0.0000 0.0000 -13681.5357 2262.4031 0.0000 0.0000 904.7083 -10514.4243 154.3811 -11419.1327 -10511.0443 150.0115 -20.0918 84.4235 28662.7751 4.2099 4.2428
TCL: Running 100000 steps at 180 kelvin.
TCL: Setting parameter langevinTemp to 180
TCL: Running for 100000 steps
ETITLE: TS BOND ANGLE DIHED IMPRP ELECT VDW BOUNDARY MISC KINETIC TOTAL TEMP POTENTIAL TOTAL3 TEMPAVG PRESSURE GPRESSURE VOLUME PRESSAVG GPRESSAVG
ENERGY: 500000 0.0000 0.0000 0.0000 0.0000 -13681.5357 2262.4031 0.0000 0.0000 904.2575 -10514.8752 154.3042 -11419.1327 -10513.0378 154.3042 21.6025 85.2202 28662.7751 21.6025 85.2202
ENERGY: 600000 0.0000 0.0000 0.0000 0.0000 -13286.2282 2176.0744 0.0000 0.0000 1092.1493 -10018.0044 186.3664 -11110.1537 -10015.2617 179.9122 210.3142 309.7436 29095.7170 3.4109 3.3812
TCL: Running 100000 steps at 210 kelvin.
TCL: Setting parameter langevinTemp to 210
TCL: Running for 100000 steps
ETITLE: TS BOND ANGLE DIHED IMPRP ELECT VDW BOUNDARY MISC KINETIC TOTAL TEMP POTENTIAL TOTAL3 TEMPAVG PRESSURE GPRESSURE VOLUME PRESSAVG GPRESSAVG
ENERGY: 600000 0.0000 0.0000 0.0000 0.0000 -13286.2282 2176.0744 0.0000 0.0000 1091.6259 -10018.5278 186.2771 -11110.1537 -10016.5092 186.2771 237.6660 310.0180 29095.7170 237.6660 310.0180
ENERGY: 700000 0.0000 0.0000 0.0000 0.0000 -12438.9697 1829.4104 0.0000 0.0000 1249.8771 -9359.6822 213.2814 -10609.5593 -9356.4472 210.2058 -510.1767 -442.8121 28915.0948 3.3796 3.3016
TCL: Running 100000 steps at 240 kelvin.
TCL: Setting parameter langevinTemp to 240
TCL: Running for 100000 steps
ETITLE: TS BOND ANGLE DIHED IMPRP ELECT VDW BOUNDARY MISC KINETIC TOTAL TEMP POTENTIAL TOTAL3 TEMPAVG PRESSURE GPRESSURE VOLUME PRESSAVG GPRESSAVG
ENERGY: 700000 0.0000 0.0000 0.0000 0.0000 -12438.9697 1829.4104 0.0000 0.0000 1249.2760 -9360.2833 213.1788 -10609.5593 -9358.0047 213.1788 -505.0831 -442.1114 28915.0948 -505.0831 -442.1114
ENERGY: 800000 0.0000 0.0000 0.0000 0.0000 -11933.6785 1742.5968 0.0000 0.0000 1451.7827 -8739.2990 247.7349 -10191.0817 -8734.6081 239.6741 -81.3137 27.4577 29628.2355 2.5059 2.5139
TCL: Running 100000 steps at 270 kelvin.
TCL: Setting parameter langevinTemp to 270
TCL: Running for 100000 steps
ETITLE: TS BOND ANGLE DIHED IMPRP ELECT VDW BOUNDARY MISC KINETIC TOTAL TEMP POTENTIAL TOTAL3 TEMPAVG PRESSURE GPRESSURE VOLUME PRESSAVG GPRESSAVG
ENERGY: 800000 0.0000 0.0000 0.0000 0.0000 -11933.6785 1742.5968 0.0000 0.0000 1451.0878 -8739.9939 247.6164 -10191.0817 -8737.6739 247.6164 -56.5281 26.8587 29628.2355 -56.5281 26.8587
ENERGY: 900000 0.0000 0.0000 0.0000 0.0000 -11366.3701 1609.4642 0.0000 0.0000 1596.3922 -8160.5137 272.4114 -9756.9059 -8157.8297 270.2457 214.9191 322.2262 29951.5417 2.9452 2.9813
TCL: Running 1000000 steps at 300 kelvin.
TCL: Setting parameter langevinTemp to 300
TCL: Running for 1000000 steps
ETITLE: TS BOND ANGLE DIHED IMPRP ELECT VDW BOUNDARY MISC KINETIC TOTAL TEMP POTENTIAL TOTAL3 TEMPAVG PRESSURE GPRESSURE VOLUME PRESSAVG GPRESSAVG
ENERGY: 900000 0.0000 0.0000 0.0000 0.0000 -11366.3701 1609.4642 0.0000 0.0000 1595.5987 -8161.3072 272.2760 -9756.9059 -8159.0066 272.2760 250.4216 320.8447 29951.5417 250.4216 320.8447
ENERGY: 1100000 0.0000 0.0000 0.0000 0.0000 -10827.7653 1502.5886 0.0000 0.0000 1724.2543 -7600.9224 294.2300 -9325.1767 -7596.3532 300.6353 677.6760 737.3310 30304.1919 2.9884 3.0237
ENERGY: 1300000 0.0000 0.0000 0.0000 0.0000 -10516.7823 1305.4509 0.0000 0.0000 1739.9536 -7471.3778 296.9089 -9211.3314 -7468.1316 299.2848 -802.1365 -685.9829 30956.1769 4.1827 4.0945
ENERGY: 1500000 0.0000 0.0000 0.0000 0.0000 -10798.6841 1450.2022 0.0000 0.0000 1772.1033 -7576.3785 302.3950 -9348.4819 -7572.1549 300.6801 110.5016 201.6543 30407.0976 3.6822 3.7440
ENERGY: 1700000 0.0000 0.0000 0.0000 0.0000 -10718.5757 1360.3071 0.0000 0.0000 1712.9253 -7645.3433 292.2968 -9358.2686 -7640.1946 299.8579 -922.9952 -791.9396 31010.1636 2.3507 2.2715
ENERGY: 1900000 0.0000 0.0000 0.0000 0.0000 -10622.7539 1338.1251 0.0000 0.0000 1768.4910 -7516.1378 301.7786 -9284.6288 -7511.8630 300.1221 -538.5870 -441.6484 30427.1943 3.1642 3.0546
TCL: Exiting due to exit command.
