Info: SIMULATION PARAMETERS:
Info: TIMESTEP               2
Info: NUMBER OF STEPS        0
Info: STEPS PER CYCLE        10
Info: PERIODIC CELL BASIS 1  36.005 0 0
Info: PERIODIC CELL BASIS 2  0 35.847 0
Info: PERIODIC CELL BASIS 3  0 0 34.68
Info: PERIODIC CELL CENTER   0 0 0
Info: WRAPPING WATERS AROUND PERIODIC BOUNDARIES ON OUTPUT.
Info: WRAPPING ALL CLUSTERS AROUND PERIODIC BOUNDARIES ON OUTPUT.
Info: FIRST LDB TIMESTEP     50
Info: LAST LDB TIMESTEP     -1
Info: HOM BACKGROUND SCALING 1
Info: PME BACKGROUND SCALING 1
Info: MIN ATOMS PER PATCH    40
Info: EMPTY PATCH LOAD       40 ATOMS
Info: INITIAL TEMPERATURE    300
Info: CENTER OF MASS MOVING INITIALLY? NO
Info: DIELECTRIC             1
Info: EXCLUDE                SCALED ONE-FOUR
Info: 1-4 ELECTROSTATICS SCALED BY 0.833333
Info: MODIFIED 1-4 VDW PARAMETERS WILL BE USED
Info: DCD FILENAME           mobley_951560_equil.dcd
Info: DCD FREQUENCY          100000
Info: DCD FIRST STEP         100000
Info: DCD FILE WILL CONTAIN UNIT CELL DATA
Info: XST FILENAME           mobley_951560_equil.xst
Info: XST FREQUENCY          100000
Info: NO VELOCITY DCD OUTPUT
Info: NO FORCE DCD OUTPUT
Info: OUTPUT FILENAME        mobley_951560_equil
Info: BINARY OUTPUT FILES WILL BE USED
Info: RESTART FILENAME       mobley_951560_equil.restart
Info: RESTART FREQUENCY      100000
Info: BINARY RESTART FILES WILL BE USED
Info: CUTOFF                 9
Info: PAIRLIST DISTANCE      11
Info: PAIRLIST SHRINK RATE   0.01
Info: PAIRLIST GROW RATE     0.01
Info: PAIRLIST TRIGGER       0.3
Info: PAIRLISTS PER CYCLE    2
Info: PAIRLISTS ENABLED
Info: MARGIN                 8
Info: HYDROGEN GROUP CUTOFF  2.5
Info: PATCH DIMENSION        21.5
Info: ENERGY OUTPUT STEPS    100000
Info: ENERGY EVALUATION STEPS    100000
Info: OUTPUT ENERGY PRECISION 4
Info: CROSSTERM ENERGY INCLUDED IN DIHEDRAL
Info: TIMING OUTPUT STEPS    1000000
Info: PRESSURE OUTPUT STEPS  100000
Info: FIXED ATOMS ACTIVE
Info: LANGEVIN DYNAMICS ACTIVE
Info: LANGEVIN TEMPERATURE   30
Info: LANGEVIN USING BBK INTEGRATOR
Info: LANGEVIN DAMPING COEFFICIENT IS 1 INVERSE PS
Info: LANGEVIN DYNAMICS APPLIED TO HYDROGENS
Info: LANGEVIN PISTON PRESSURE CONTROL ACTIVE
Info:        TARGET PRESSURE IS 1.01325 BAR
Info:     OSCILLATION PERIOD IS 50 FS
Info:             DECAY TIME IS 25 FS
Info:     PISTON TEMPERATURE IS 300 K
Info:       PRESSURE CONTROL IS GROUP-BASED
Info:    INITIAL STRAIN RATE IS 0 0 0
Info:       CELL FLUCTUATION IS ISOTROPIC
Info: PARTICLE MESH EWALD (PME) ACTIVE
Info: PME TOLERANCE               1e-06
Info: PME EWALD COEFFICIENT       0.348832
Info: PME INTERPOLATION ORDER     4
Info: PME GRID DIMENSIONS         40 36 36
Info: PME MAXIMUM GRID SPACING    1
Info: FULL ELECTROSTATIC EVALUATION FREQUENCY      2
Info: USING VERLET I (r-RESPA) MTS SCHEME.
Info: C1 SPLITTING OF LONG RANGE ELECTROSTATICS
Info: PLACING ATOMS IN PATCHES BY HYDROGEN GROUPS
Info: RIGID BONDS TO HYDROGEN : ALL
Info:         ERROR TOLERANCE : 1e-08
Info:          MAX ITERATIONS : 100
Info: RIGID WATER USING SETTLE ALGORITHM
Info: RANDOM NUMBER SEED     1743739352
Info: USE HYDROGEN BONDS?    NO
Info: Using AMBER format force field!
Info: AMBER PARM FILE        mobley_951560.prmtop
Info: COORDINATE PDB         mobley_951560.pdb
Info: Exclusions will be read from PARM file!
Info: SCNB (VDW SCALING)     2
Info: USING ARITHMETIC MEAN TO COMBINE L-J SIGMA PARAMETERS
Info: BINARY COORDINATES     mobley_951560_min.coor
Info: SUMMARY OF PARAMETERS:
Info: 6 BONDS
Info: 6 ANGLES
Info:   6 HARMONIC
Info:   0 COSINE-BASED
Info: 3 DIHEDRAL
Info: 0 IMPROPER
Info: 0 CROSSTERM
Info: 0 VDW
Info: 21 VDW_PAIRS
Info: 0 NBTHOLE_PAIRS
Info: STRUCTURE SUMMARY:
Info: 2941 ATOMS
Info: 2941 BONDS
Info: 30 ANGLES
Info: 46 DIHEDRALS
Info: 0 IMPROPERS
Info: 0 CROSSTERMS
Info: 3010 EXCLUSIONS
Info: 16 FIXED ATOMS
Info: 2935 RIGID BONDS
Info: 10 RIGID BONDS BETWEEN FIXED ATOMS
Info: 5850 DEGREES OF FREEDOM
Info: 981 HYDROGEN GROUPS
Info: 3 ATOMS IN LARGEST HYDROGEN GROUP
Info: 981 MIGRATION GROUPS
Info: 3 ATOMS IN LARGEST MIGRATION GROUP
Info: 6 HYDROGEN GROUPS WITH ALL ATOMS FIXED
Info: TOTAL MASS = 17651.7 amu
Info: TOTAL CHARGE = 8.9407e-08 e
Info: MASS DENSITY = 0.654865 g/cm^3
Info: ATOM DENSITY = 0.0657053 atoms/A^3
Info: ADDED 0 IMPLICIT EXCLUSIONS
Info: NONBONDED TABLE R-SQUARED SPACING: 0.0625
Info: NONBONDED TABLE SIZE: 705 POINTS
Info: REMOVING COM VELOCITY 0.019571 -0.0402521 0.136988
TCL: Running for 100000 steps
ETITLE: TS BOND ANGLE DIHED IMPRP ELECT VDW BOUNDARY MISC KINETIC TOTAL TEMP POTENTIAL TOTAL3 TEMPAVG PRESSURE GPRESSURE VOLUME PRESSAVG GPRESSAVG
ENERGY: 0 0.0000 0.0000 0.0000 0.0000 -13740.0642 2418.1621 0.0000 0.0000 1749.0582 -9572.8438 300.9115 -11321.9020 -9572.5017 300.9115 585.2365 615.9849 44760.4784 585.2365 615.9849
ENERGY: 100000 0.0000 0.0000 0.0000 0.0000 -14310.4857 2476.6575 0.0000 0.0000 182.2638 -11651.5644 31.3570 -11833.8282 -11651.0026 30.9008 -0.2288 60.8344 28726.0533 3.6814 3.6493
TCL: Running 100000 steps at 60 kelvin.
TCL: Setting parameter langevinTemp to 60
TCL: Running for 100000 steps
ETITLE: TS BOND ANGLE DIHED IMPRP ELECT VDW BOUNDARY MISC KINETIC TOTAL TEMP POTENTIAL TOTAL3 TEMPAVG PRESSURE GPRESSURE VOLUME PRESSAVG GPRESSAVG
ENERGY: 100000 0.0000 0.0000 0.0000 0.0000 -14310.4857 2476.6575 0.0000 0.0000 182.1755 -11651.6526 31.3418 -11833.8282 -11651.2249 31.3418 3.1596 60.8982 28726.0533 3.1596 60.8982
ENERGY: 200000 0.0000 0.0000 0.0000 0.0000 -14212.7470 2458.9477 0.0000 0.0000 342.8335 -11410.9657 58.9818 -11753.7992 -11410.0148 59.9151 216.2098 290.5587 28382.8910 4.2401 4.2876
TCL: Running 100000 steps at 90 kelvin.
TCL: Setting parameter langevinTemp to 90
TCL: Running for 100000 steps
ETITLE: TS BOND ANGLE DIHED IMPRP ELECT VDW BOUNDARY MISC KINETIC TOTAL TEMP POTENTIAL TOTAL3 TEMPAVG PRESSURE GPRESSURE VOLUME PRESSAVG GPRESSAVG
ENERGY: 200000 0.0000 0.0000 0.0000 0.0000 -14212.7470 2458.9477 0.0000 0.0000 342.6629 -11411.1363 58.9524 -11753.7992 -11410.4913 58.9524 236.1308 290.6653 28382.8910 236.1308 290.6653
ENERGY: 300000 0.0000 0.0000 0.0000 0.0000 -13991.7782 2342.6877 0.0000 0.0000 519.7678 -11129.3227 89.4219 -11649.0905 -11128.3196 90.1555 -290.0194 -224.1566 28514.1837 3.3827 3.3599
TCL: Running 100000 steps at 120 kelvin.
TCL: Setting parameter langevinTemp to 120
TCL: Running for 100000 steps
ETITLE: TS BOND ANGLE DIHED IMPRP ELECT VDW BOUNDARY MISC KINETIC TOTAL TEMP POTENTIAL TOTAL3 TEMPAVG PRESSURE GPRESSURE VOLUME PRESSAVG GPRESSAVG
ENERGY: 300000 0.0000 0.0000 0.0000 0.0000 -13991.7782 2342.6877 0.0000 0.0000 519.5040 -11129.5865 89.3765 -11649.0905 -11128.5240 89.3765 -274.5465 -224.2446 28514.1837 -274.5465 -224.2446
ENERGY: 400000 0.0000 0.0000 0.0000 0.0000 -13753.9158 2263.3985 0.0000 0.0000 719.2977 -10771.2196 123.7494 -11490.5173 -10769.3072 120.1404 -559.3293 -483.3816 28955.7899 4.9569 5.0361
TCL: Running 100000 steps at 150 kelvin.
TCL: Setting parameter langevinTemp to 150
TCL: Running for 100000 steps
ETITLE: TS BOND ANGLE DIHED IMPRP ELECT VDW BOUNDARY MISC KINETIC TOTAL TEMP POTENTIAL TOTAL3 TEMPAVG PRESSURE GPRESSURE VOLUME PRESSAVG GPRESSAVG
ENERGY: 400000 0.0000 0.0000 0.0000 0.0000 -13753.9158 2263.3985 0.0000 0.0000 718.9524 -10771.5649 123.6900 -11490.5173 -10770.0409 123.6900 -542.2749 -482.5829 28955.7899 -542.2749 -482.5829
ENERGY: 500000 0.0000 0.0000 0.0000 0.0000 -13468.4988 2152.2596 0.0000 0.0000 874.3689 -10441.8703 150.4282 -11316.2392 -10440.0388 150.1173 -757.2458 -737.0768 28869.9304 3.8980 3.8570
TCL: Running 100000 steps at 180 kelvin.
TCL: Setting parameter langevinTemp to 180
TCL: Running for 100000 steps
ETITLE: TS BOND ANGLE DIHED IMPRP ELECT VDW BOUNDARY MISC KINETIC TOTAL TEMP POTENTIAL TOTAL3 TEMPAVG PRESSURE GPRESSURE VOLUME PRESSAVG GPRESSAVG
ENERGY: 500000 0.0000 0.0000 0.0000 0.0000 -13468.4988 2152.2596 0.0000 0.0000 873.9199 -10442.3193 150.3509 -11316.2392 -10440.4101 150.3509 -788.7053 -737.2054 28869.9304 -788.7053 -737.2054
ENERGY: 600000 0.0000 0.0000 0.0000 0.0000 -13118.5970 2051.0084 0.0000 0.0000 1039.8786 -10027.7100 178.9028 -11067.5886 -10024.2588 180.4732 -623.8326 -558.2028 29122.4381 3.4218 3.4797
TCL: Running 100000 steps at 210 kelvin.
TCL: Setting parameter langevinTemp to 210
TCL: Running for 100000 steps
ETITLE: TS BOND ANGLE DIHED IMPRP ELECT VDW BOUNDARY MISC KINETIC TOTAL TEMP POTENTIAL TOTAL3 TEMPAVG PRESSURE GPRESSURE VOLUME PRESSAVG GPRESSAVG
ENERGY: 600000 0.0000 0.0000 0.0000 0.0000 -13118.5970 2051.0084 0.0000 0.0000 1039.3473 -10028.2413 178.8114 -11067.5886 -10026.4284 178.8114 -613.0075 -557.0716 29122.4381 -613.0075 -557.0716
ENERGY: 700000 0.0000 0.0000 0.0000 0.0000 -12571.7896 2022.4568 0.0000 0.0000 1206.2405 -9343.0923 207.5240 -10549.3328 -9340.5061 209.7756 1525.6627 1577.7677 28218.0868 2.9466 2.9799
TCL: Running 100000 steps at 240 kelvin.
TCL: Setting parameter langevinTemp to 240
TCL: Running for 100000 steps
ETITLE: TS BOND ANGLE DIHED IMPRP ELECT VDW BOUNDARY MISC KINETIC TOTAL TEMP POTENTIAL TOTAL3 TEMPAVG PRESSURE GPRESSURE VOLUME PRESSAVG GPRESSAVG
ENERGY: 700000 0.0000 0.0000 0.0000 0.0000 -12571.7896 2022.4568 0.0000 0.0000 1205.6253 -9343.7075 207.4182 -10549.3328 -9342.3526 207.4182 1519.4691 1579.3533 28218.0868 1519.4691 1579.3533
ENERGY: 800000 0.0000 0.0000 0.0000 0.0000 -11903.6781 1758.3260 0.0000 0.0000 1402.0948 -8743.2573 241.2192 -10145.3521 -8740.7473 240.1288 146.5715 296.2418 29270.8007 3.4777 3.4188
TCL: Running 100000 steps at 270 kelvin.
TCL: Setting parameter langevinTemp to 270
TCL: Running for 100000 steps
ETITLE: TS BOND ANGLE DIHED IMPRP ELECT VDW BOUNDARY MISC KINETIC TOTAL TEMP POTENTIAL TOTAL3 TEMPAVG PRESSURE GPRESSURE VOLUME PRESSAVG GPRESSAVG
ENERGY: 800000 0.0000 0.0000 0.0000 0.0000 -11903.6781 1758.3260 0.0000 0.0000 1401.3955 -8743.9567 241.0989 -10145.3521 -8741.4909 241.0989 224.7248 296.3539 29270.8007 224.7248 296.3539
ENERGY: 900000 0.0000 0.0000 0.0000 0.0000 -11187.9012 1498.6213 0.0000 0.0000 1616.2350 -8073.0449 278.0603 -9689.2798 -8070.0736 269.5458 -428.9517 -340.8834 29579.1275 3.0691 3.1604
TCL: Running 1000000 steps at 300 kelvin.
TCL: Setting parameter langevinTemp to 300
TCL: Running for 1000000 steps
ETITLE: TS BOND ANGLE DIHED IMPRP ELECT VDW BOUNDARY MISC KINETIC TOTAL TEMP POTENTIAL TOTAL3 TEMPAVG PRESSURE GPRESSURE VOLUME PRESSAVG GPRESSAVG
ENERGY: 900000 0.0000 0.0000 0.0000 0.0000 -11187.9012 1498.6213 0.0000 0.0000 1615.4667 -8073.8131 277.9281 -9689.2798 -8070.9022 277.9281 -429.5242 -341.8899 29579.1275 -429.5242 -341.8899
ENERGY: 1100000 0.0000 0.0000 0.0000 0.0000 -10798.0214 1460.9359 0.0000 0.0000 1768.7999 -7568.2856 304.3079 -9337.0855 -7566.3171 300.2965 533.9397 544.9433 29744.3280 2.0730 2.0675
ENERGY: 1300000 0.0000 0.0000 0.0000 0.0000 -11006.9707 1611.4505 0.0000 0.0000 1740.4127 -7655.1076 299.4241 -9395.5203 -7654.8455 300.1787 1409.3763 1481.9183 29766.6586 2.8272 2.6678
ENERGY: 1500000 0.0000 0.0000 0.0000 0.0000 -10663.3038 1363.3305 0.0000 0.0000 1765.3734 -7534.5999 303.7184 -9299.9733 -7529.5481 300.0719 -395.2068 -359.5093 30288.0800 2.3399 2.3428
ENERGY: 1700000 0.0000 0.0000 0.0000 0.0000 -10734.4067 1471.6495 0.0000 0.0000 1715.3845 -7547.3727 295.1182 -9262.7572 -7544.1231 299.8598 335.5618 403.2773 30560.6263 3.2632 3.0393
ENERGY: 1900000 0.0000 0.0000 0.0000 0.0000 -10603.8598 1345.8379 0.0000 0.0000 1694.7989 -7563.2230 291.5766 -9258.0220 -7561.5231 300.4276 -631.4516 -536.6715 30383.7150 3.3660 3.2577
TCL: Exiting due to exit command.
