Info: SIMULATION PARAMETERS:
Info: TIMESTEP               2
Info: NUMBER OF STEPS        0
Info: STEPS PER CYCLE        10
Info: PERIODIC CELL BASIS 1  37.133 0 0
Info: PERIODIC CELL BASIS 2  0 36.611 0
Info: PERIODIC CELL BASIS 3  0 0 33.088
Info: PERIODIC CELL CENTER   0 0 0
Info: WRAPPING WATERS AROUND PERIODIC BOUNDARIES ON OUTPUT.
Info: WRAPPING ALL CLUSTERS AROUND PERIODIC BOUNDARIES ON OUTPUT.
Info: FIRST LDB TIMESTEP     50
Info: LAST LDB TIMESTEP     -1
Info: HOM BACKGROUND SCALING 1
Info: PME BACKGROUND SCALING 1
Info: MIN ATOMS PER PATCH    40
Info: EMPTY PATCH LOAD       40 ATOMS
Info: INITIAL TEMPERATURE    300
Info: CENTER OF MASS MOVING INITIALLY? NO
Info: DIELECTRIC             1
Info: EXCLUDE                SCALED ONE-FOUR
Info: 1-4 ELECTROSTATICS SCALED BY 0.833333
Info: MODIFIED 1-4 VDW PARAMETERS WILL BE USED
Info: DCD FILENAME           mobley_1760914_equil.dcd
Info: DCD FREQUENCY          100000
Info: DCD FIRST STEP         100000
Info: DCD FILE WILL CONTAIN UNIT CELL DATA
Info: XST FILENAME           mobley_1760914_equil.xst
Info: XST FREQUENCY          100000
Info: NO VELOCITY DCD OUTPUT
Info: NO FORCE DCD OUTPUT
Info: OUTPUT FILENAME        mobley_1760914_equil
Info: BINARY OUTPUT FILES WILL BE USED
Info: RESTART FILENAME       mobley_1760914_equil.restart
Info: RESTART FREQUENCY      100000
Info: BINARY RESTART FILES WILL BE USED
Info: CUTOFF                 9
Info: PAIRLIST DISTANCE      11
Info: PAIRLIST SHRINK RATE   0.01
Info: PAIRLIST GROW RATE     0.01
Info: PAIRLIST TRIGGER       0.3
Info: PAIRLISTS PER CYCLE    2
Info: PAIRLISTS ENABLED
Info: MARGIN                 8
Info: HYDROGEN GROUP CUTOFF  2.5
Info: PATCH DIMENSION        21.5
Info: ENERGY OUTPUT STEPS    100000
Info: ENERGY EVALUATION STEPS    100000
Info: OUTPUT ENERGY PRECISION 4
Info: CROSSTERM ENERGY INCLUDED IN DIHEDRAL
Info: TIMING OUTPUT STEPS    1000000
Info: PRESSURE OUTPUT STEPS  100000
Info: FIXED ATOMS ACTIVE
Info: LANGEVIN DYNAMICS ACTIVE
Info: LANGEVIN TEMPERATURE   30
Info: LANGEVIN USING BBK INTEGRATOR
Info: LANGEVIN DAMPING COEFFICIENT IS 1 INVERSE PS
Info: LANGEVIN DYNAMICS APPLIED TO HYDROGENS
Info: LANGEVIN PISTON PRESSURE CONTROL ACTIVE
Info:        TARGET PRESSURE IS 1.01325 BAR
Info:     OSCILLATION PERIOD IS 50 FS
Info:             DECAY TIME IS 25 FS
Info:     PISTON TEMPERATURE IS 300 K
Info:       PRESSURE CONTROL IS GROUP-BASED
Info:    INITIAL STRAIN RATE IS 0 0 0
Info:       CELL FLUCTUATION IS ISOTROPIC
Info: PARTICLE MESH EWALD (PME) ACTIVE
Info: PME TOLERANCE               1e-06
Info: PME EWALD COEFFICIENT       0.348832
Info: PME INTERPOLATION ORDER     4
Info: PME GRID DIMENSIONS         40 40 36
Info: PME MAXIMUM GRID SPACING    1
Info: FULL ELECTROSTATIC EVALUATION FREQUENCY      2
Info: USING VERLET I (r-RESPA) MTS SCHEME.
Info: C1 SPLITTING OF LONG RANGE ELECTROSTATICS
Info: PLACING ATOMS IN PATCHES BY HYDROGEN GROUPS
Info: RIGID BONDS TO HYDROGEN : ALL
Info:         ERROR TOLERANCE : 1e-08
Info:          MAX ITERATIONS : 100
Info: RIGID WATER USING SETTLE ALGORITHM
Info: RANDOM NUMBER SEED     1743742354
Info: USE HYDROGEN BONDS?    NO
Info: Using AMBER format force field!
Info: AMBER PARM FILE        mobley_1760914.prmtop
Info: COORDINATE PDB         mobley_1760914.pdb
Info: Exclusions will be read from PARM file!
Info: SCNB (VDW SCALING)     2
Info: USING ARITHMETIC MEAN TO COMBINE L-J SIGMA PARAMETERS
Info: BINARY COORDINATES     mobley_1760914_min.coor
Info: SUMMARY OF PARAMETERS:
Info: 7 BONDS
Info: 6 ANGLES
Info:   6 HARMONIC
Info:   0 COSINE-BASED
Info: 3 DIHEDRAL
Info: 0 IMPROPER
Info: 0 CROSSTERM
Info: 0 VDW
Info: 28 VDW_PAIRS
Info: 0 NBTHOLE_PAIRS
Info: STRUCTURE SUMMARY:
Info: 2949 ATOMS
Info: 2949 BONDS
Info: 24 ANGLES
Info: 36 DIHEDRALS
Info: 0 IMPROPERS
Info: 0 CROSSTERMS
Info: 3000 EXCLUSIONS
Info: 15 FIXED ATOMS
Info: 2941 RIGID BONDS
Info: 7 RIGID BONDS BETWEEN FIXED ATOMS
Info: 5868 DEGREES OF FREEDOM
Info: 986 HYDROGEN GROUPS
Info: 4 ATOMS IN LARGEST HYDROGEN GROUP
Info: 986 MIGRATION GROUPS
Info: 4 ATOMS IN LARGEST MIGRATION GROUP
Info: 8 HYDROGEN GROUPS WITH ALL ATOMS FIXED
Info: TOTAL MASS = 17746.2 amu
Info: TOTAL CHARGE = 1.49012e-08 e
Info: MASS DENSITY = 0.655123 g/cm^3
Info: ATOM DENSITY = 0.065559 atoms/A^3
Info: ADDED 0 IMPLICIT EXCLUSIONS
Info: NONBONDED TABLE R-SQUARED SPACING: 0.0625
Info: NONBONDED TABLE SIZE: 705 POINTS
Info: REMOVING COM VELOCITY 0.00375015 0.26224 0.0730319
TCL: Running for 100000 steps
ETITLE: TS BOND ANGLE DIHED IMPRP ELECT VDW BOUNDARY MISC KINETIC TOTAL TEMP POTENTIAL TOTAL3 TEMPAVG PRESSURE GPRESSURE VOLUME PRESSAVG GPRESSAVG
ENERGY: 0 0.0000 0.0000 0.0000 0.0000 -13655.7458 2395.6324 0.0000 0.0000 1688.6282 -9571.4852 289.6239 -11260.1134 -9571.1651 289.6239 329.9253 360.4294 44982.3506 329.9253 360.4294
ENERGY: 100000 0.0000 0.0000 0.0000 0.0000 -14178.0637 2420.6199 0.0000 0.0000 174.4467 -11582.9971 29.9201 -11757.4438 -11582.5241 30.8993 -598.0373 -563.7483 29057.0505 2.5135 2.5608
TCL: Running 100000 steps at 60 kelvin.
TCL: Setting parameter langevinTemp to 60
TCL: Running for 100000 steps
ETITLE: TS BOND ANGLE DIHED IMPRP ELECT VDW BOUNDARY MISC KINETIC TOTAL TEMP POTENTIAL TOTAL3 TEMPAVG PRESSURE GPRESSURE VOLUME PRESSAVG GPRESSAVG
ENERGY: 100000 0.0000 0.0000 0.0000 0.0000 -14178.0637 2420.6199 0.0000 0.0000 174.3588 -11583.0849 29.9050 -11757.4438 -11582.6564 29.9050 -627.3700 -563.7344 29057.0505 -627.3700 -563.7344
ENERGY: 200000 0.0000 0.0000 0.0000 0.0000 -14118.3701 2437.5641 0.0000 0.0000 346.5024 -11334.3037 59.4301 -11680.8060 -11333.1507 60.0662 44.4691 99.7936 28477.9493 3.8963 3.8037
TCL: Running 100000 steps at 90 kelvin.
TCL: Setting parameter langevinTemp to 90
TCL: Running for 100000 steps
ETITLE: TS BOND ANGLE DIHED IMPRP ELECT VDW BOUNDARY MISC KINETIC TOTAL TEMP POTENTIAL TOTAL3 TEMPAVG PRESSURE GPRESSURE VOLUME PRESSAVG GPRESSAVG
ENERGY: 200000 0.0000 0.0000 0.0000 0.0000 -14118.3701 2437.5641 0.0000 0.0000 346.3390 -11334.4670 59.4021 -11680.8060 -11333.8884 59.4021 51.4066 99.6500 28477.9493 51.4066 99.6500
ENERGY: 300000 0.0000 0.0000 0.0000 0.0000 -13981.4487 2413.0731 0.0000 0.0000 527.6439 -11040.7317 90.4985 -11568.3756 -11039.3096 90.0335 242.6223 314.4248 28704.1828 3.2944 3.3061
TCL: Running 100000 steps at 120 kelvin.
TCL: Setting parameter langevinTemp to 120
TCL: Running for 100000 steps
ETITLE: TS BOND ANGLE DIHED IMPRP ELECT VDW BOUNDARY MISC KINETIC TOTAL TEMP POTENTIAL TOTAL3 TEMPAVG PRESSURE GPRESSURE VOLUME PRESSAVG GPRESSAVG
ENERGY: 300000 0.0000 0.0000 0.0000 0.0000 -13981.4487 2413.0731 0.0000 0.0000 527.3811 -11040.9945 90.4534 -11568.3756 -11040.1688 90.4534 255.3566 314.9961 28704.1828 255.3566 314.9961
ENERGY: 400000 0.0000 0.0000 0.0000 0.0000 -13852.3243 2400.0484 0.0000 0.0000 704.5974 -10747.6784 120.8485 -11452.2758 -10745.3508 120.0604 813.1109 858.2183 28441.8233 3.3077 3.2495
TCL: Running 100000 steps at 150 kelvin.
TCL: Setting parameter langevinTemp to 150
TCL: Running for 100000 steps
ETITLE: TS BOND ANGLE DIHED IMPRP ELECT VDW BOUNDARY MISC KINETIC TOTAL TEMP POTENTIAL TOTAL3 TEMPAVG PRESSURE GPRESSURE VOLUME PRESSAVG GPRESSAVG
ENERGY: 400000 0.0000 0.0000 0.0000 0.0000 -13852.3243 2400.0484 0.0000 0.0000 704.2445 -10748.0313 120.7880 -11452.2758 -10746.8778 120.7880 808.7298 859.3369 28441.8233 808.7298 859.3369
ENERGY: 500000 0.0000 0.0000 0.0000 0.0000 -13530.7973 2273.1474 0.0000 0.0000 883.6220 -10374.0279 151.5538 -11257.6499 -10371.9760 149.9655 292.4078 348.6939 28751.4354 4.4999 4.4774
TCL: Running 100000 steps at 180 kelvin.
TCL: Setting parameter langevinTemp to 180
TCL: Running for 100000 steps
ETITLE: TS BOND ANGLE DIHED IMPRP ELECT VDW BOUNDARY MISC KINETIC TOTAL TEMP POTENTIAL TOTAL3 TEMPAVG PRESSURE GPRESSURE VOLUME PRESSAVG GPRESSAVG
ENERGY: 500000 0.0000 0.0000 0.0000 0.0000 -13530.7973 2273.1474 0.0000 0.0000 883.1708 -10374.4791 151.4764 -11257.6499 -10372.9166 151.4764 288.1395 348.1923 28751.4354 288.1395 348.1923
ENERGY: 600000 0.0000 0.0000 0.0000 0.0000 -13043.0521 2063.8323 0.0000 0.0000 1029.4701 -9949.7496 176.5688 -10979.2198 -9949.1103 180.4764 -559.6306 -455.6510 29040.9521 3.4237 3.4672
TCL: Running 100000 steps at 210 kelvin.
TCL: Setting parameter langevinTemp to 210
TCL: Running for 100000 steps
ETITLE: TS BOND ANGLE DIHED IMPRP ELECT VDW BOUNDARY MISC KINETIC TOTAL TEMP POTENTIAL TOTAL3 TEMPAVG PRESSURE GPRESSURE VOLUME PRESSAVG GPRESSAVG
ENERGY: 600000 0.0000 0.0000 0.0000 0.0000 -13043.0521 2063.8323 0.0000 0.0000 1028.9599 -9950.2598 176.4813 -10979.2198 -9948.6459 176.4813 -533.1099 -457.1725 29040.9521 -533.1099 -457.1725
ENERGY: 700000 0.0000 0.0000 0.0000 0.0000 -12469.8856 1925.1577 0.0000 0.0000 1201.5258 -9343.2020 206.0788 -10544.7279 -9341.2082 210.1086 272.2754 322.9121 28472.5315 3.6266 3.5663
TCL: Running 100000 steps at 240 kelvin.
TCL: Setting parameter langevinTemp to 240
TCL: Running for 100000 steps
ETITLE: TS BOND ANGLE DIHED IMPRP ELECT VDW BOUNDARY MISC KINETIC TOTAL TEMP POTENTIAL TOTAL3 TEMPAVG PRESSURE GPRESSURE VOLUME PRESSAVG GPRESSAVG
ENERGY: 700000 0.0000 0.0000 0.0000 0.0000 -12469.8856 1925.1577 0.0000 0.0000 1200.9117 -9343.8162 205.9735 -10544.7279 -9341.8222 205.9735 258.7583 321.0080 28472.5315 258.7583 321.0080
ENERGY: 800000 0.0000 0.0000 0.0000 0.0000 -11783.6785 1723.7323 0.0000 0.0000 1390.1756 -8669.7706 238.4350 -10059.9462 -8669.3573 239.9663 -90.8836 -7.9687 29441.8771 2.8634 2.9418
TCL: Running 100000 steps at 270 kelvin.
TCL: Setting parameter langevinTemp to 270
TCL: Running for 100000 steps
ETITLE: TS BOND ANGLE DIHED IMPRP ELECT VDW BOUNDARY MISC KINETIC TOTAL TEMP POTENTIAL TOTAL3 TEMPAVG PRESSURE GPRESSURE VOLUME PRESSAVG GPRESSAVG
ENERGY: 800000 0.0000 0.0000 0.0000 0.0000 -11783.6785 1723.7323 0.0000 0.0000 1389.5112 -8670.4349 238.3210 -10059.9462 -8667.4531 238.3210 -97.1567 -10.6958 29441.8771 -97.1567 -10.6958
ENERGY: 900000 0.0000 0.0000 0.0000 0.0000 -11278.1961 1560.5310 0.0000 0.0000 1575.8202 -8141.8449 270.2757 -9717.6651 -8137.6953 270.1312 -147.1847 -114.5156 29415.0591 3.7115 3.8099
TCL: Running 1000000 steps at 300 kelvin.
TCL: Setting parameter langevinTemp to 300
TCL: Running for 1000000 steps
ETITLE: TS BOND ANGLE DIHED IMPRP ELECT VDW BOUNDARY MISC KINETIC TOTAL TEMP POTENTIAL TOTAL3 TEMPAVG PRESSURE GPRESSURE VOLUME PRESSAVG GPRESSAVG
ENERGY: 900000 0.0000 0.0000 0.0000 0.0000 -11278.1961 1560.5310 0.0000 0.0000 1575.0443 -8142.6208 270.1426 -9717.6651 -8139.5773 270.1426 -208.2436 -114.3744 29415.0591 -208.2436 -114.3744
ENERGY: 1100000 0.0000 0.0000 0.0000 0.0000 -10832.8212 1492.5390 0.0000 0.0000 1762.3556 -7577.9266 302.2692 -9340.2823 -7573.7829 300.0966 540.5554 577.9086 29946.3928 2.1876 2.3961
ENERGY: 1300000 0.0000 0.0000 0.0000 0.0000 -10574.2312 1347.6636 0.0000 0.0000 1752.5431 -7474.0245 300.5862 -9226.5677 -7472.0904 300.0762 -601.2513 -548.4905 30559.7026 3.4293 3.3584
ENERGY: 1500000 0.0000 0.0000 0.0000 0.0000 -10643.3952 1399.7935 0.0000 0.0000 1813.4400 -7430.1617 311.0309 -9243.6017 -7426.0387 299.9530 -415.0975 -329.4917 30803.9741 2.7511 2.7773
ENERGY: 1700000 0.0000 0.0000 0.0000 0.0000 -10658.1355 1456.4106 0.0000 0.0000 1773.1271 -7428.5978 304.1166 -9201.7249 -7427.2040 300.6943 245.4143 345.6422 30684.3032 2.4846 2.6085
ENERGY: 1900000 0.0000 0.0000 0.0000 0.0000 -10805.7566 1490.5450 0.0000 0.0000 1754.3573 -7560.8544 300.8973 -9315.2117 -7559.6476 300.1197 400.1128 504.2180 29906.4549 4.0482 4.0322
TCL: Exiting due to exit command.
