Info: SIMULATION PARAMETERS:
Info: TIMESTEP               2
Info: NUMBER OF STEPS        0
Info: STEPS PER CYCLE        10
Info: PERIODIC CELL BASIS 1  37.38 0 0
Info: PERIODIC CELL BASIS 2  0 35.847 0
Info: PERIODIC CELL BASIS 3  0 0 31.855
Info: PERIODIC CELL CENTER   0 0 0
Info: WRAPPING WATERS AROUND PERIODIC BOUNDARIES ON OUTPUT.
Info: WRAPPING ALL CLUSTERS AROUND PERIODIC BOUNDARIES ON OUTPUT.
Info: FIRST LDB TIMESTEP     50
Info: LAST LDB TIMESTEP     -1
Info: HOM BACKGROUND SCALING 1
Info: PME BACKGROUND SCALING 1
Info: MIN ATOMS PER PATCH    40
Info: EMPTY PATCH LOAD       40 ATOMS
Info: INITIAL TEMPERATURE    300
Info: CENTER OF MASS MOVING INITIALLY? NO
Info: DIELECTRIC             1
Info: EXCLUDE                SCALED ONE-FOUR
Info: 1-4 ELECTROSTATICS SCALED BY 0.833333
Info: MODIFIED 1-4 VDW PARAMETERS WILL BE USED
Info: DCD FILENAME           mobley_7298388_equil.dcd
Info: DCD FREQUENCY          100000
Info: DCD FIRST STEP         100000
Info: DCD FILE WILL CONTAIN UNIT CELL DATA
Info: XST FILENAME           mobley_7298388_equil.xst
Info: XST FREQUENCY          100000
Info: NO VELOCITY DCD OUTPUT
Info: NO FORCE DCD OUTPUT
Info: OUTPUT FILENAME        mobley_7298388_equil
Info: BINARY OUTPUT FILES WILL BE USED
Info: RESTART FILENAME       mobley_7298388_equil.restart
Info: RESTART FREQUENCY      100000
Info: BINARY RESTART FILES WILL BE USED
Info: CUTOFF                 9
Info: PAIRLIST DISTANCE      11
Info: PAIRLIST SHRINK RATE   0.01
Info: PAIRLIST GROW RATE     0.01
Info: PAIRLIST TRIGGER       0.3
Info: PAIRLISTS PER CYCLE    2
Info: PAIRLISTS ENABLED
Info: MARGIN                 8
Info: HYDROGEN GROUP CUTOFF  2.5
Info: PATCH DIMENSION        21.5
Info: ENERGY OUTPUT STEPS    100000
Info: ENERGY EVALUATION STEPS    100000
Info: OUTPUT ENERGY PRECISION 4
Info: CROSSTERM ENERGY INCLUDED IN DIHEDRAL
Info: TIMING OUTPUT STEPS    1000000
Info: PRESSURE OUTPUT STEPS  100000
Info: FIXED ATOMS ACTIVE
Info: LANGEVIN DYNAMICS ACTIVE
Info: LANGEVIN TEMPERATURE   30
Info: LANGEVIN USING BBK INTEGRATOR
Info: LANGEVIN DAMPING COEFFICIENT IS 1 INVERSE PS
Info: LANGEVIN DYNAMICS APPLIED TO HYDROGENS
Info: LANGEVIN PISTON PRESSURE CONTROL ACTIVE
Info:        TARGET PRESSURE IS 1.01325 BAR
Info:     OSCILLATION PERIOD IS 50 FS
Info:             DECAY TIME IS 25 FS
Info:     PISTON TEMPERATURE IS 300 K
Info:       PRESSURE CONTROL IS GROUP-BASED
Info:    INITIAL STRAIN RATE IS 0 0 0
Info:       CELL FLUCTUATION IS ISOTROPIC
Info: PARTICLE MESH EWALD (PME) ACTIVE
Info: PME TOLERANCE               1e-06
Info: PME EWALD COEFFICIENT       0.348832
Info: PME INTERPOLATION ORDER     4
Info: PME GRID DIMENSIONS         40 36 32
Info: PME MAXIMUM GRID SPACING    1
Info: FULL ELECTROSTATIC EVALUATION FREQUENCY      2
Info: USING VERLET I (r-RESPA) MTS SCHEME.
Info: C1 SPLITTING OF LONG RANGE ELECTROSTATICS
Info: PLACING ATOMS IN PATCHES BY HYDROGEN GROUPS
Info: RIGID BONDS TO HYDROGEN : ALL
Info:         ERROR TOLERANCE : 1e-08
Info:          MAX ITERATIONS : 100
Info: RIGID WATER USING SETTLE ALGORITHM
Info: RANDOM NUMBER SEED     1744087567
Info: USE HYDROGEN BONDS?    NO
Info: Using AMBER format force field!
Info: AMBER PARM FILE        mobley_7298388.prmtop
Info: COORDINATE PDB         mobley_7298388.pdb
Info: Exclusions will be read from PARM file!
Info: SCNB (VDW SCALING)     2
Info: USING ARITHMETIC MEAN TO COMBINE L-J SIGMA PARAMETERS
Info: BINARY COORDINATES     mobley_7298388_min.coor
Info: SUMMARY OF PARAMETERS:
Info: 8 BONDS
Info: 8 ANGLES
Info:   8 HARMONIC
Info:   0 COSINE-BASED
Info: 4 DIHEDRAL
Info: 0 IMPROPER
Info: 0 CROSSTERM
Info: 0 VDW
Info: 36 VDW_PAIRS
Info: 0 NBTHOLE_PAIRS
Info: STRUCTURE SUMMARY:
Info: 2903 ATOMS
Info: 2903 BONDS
Info: 27 ANGLES
Info: 40 DIHEDRALS
Info: 0 IMPROPERS
Info: 0 CROSSTERMS
Info: 2961 EXCLUSIONS
Info: 17 FIXED ATOMS
Info: 2893 RIGID BONDS
Info: 7 RIGID BONDS BETWEEN FIXED ATOMS
Info: 5772 DEGREES OF FREEDOM
Info: 972 HYDROGEN GROUPS
Info: 4 ATOMS IN LARGEST HYDROGEN GROUP
Info: 972 MIGRATION GROUPS
Info: 4 ATOMS IN LARGEST MIGRATION GROUP
Info: 10 HYDROGEN GROUPS WITH ALL ATOMS FIXED
Info: TOTAL MASS = 17468.5 amu
Info: TOTAL CHARGE = 7.45058e-09 e
Info: MASS DENSITY = 0.679588 g/cm^3
Info: ATOM DENSITY = 0.0680107 atoms/A^3
Info: ADDED 0 IMPLICIT EXCLUSIONS
Info: NONBONDED TABLE R-SQUARED SPACING: 0.0625
Info: NONBONDED TABLE SIZE: 705 POINTS
Info: REMOVING COM VELOCITY 0.13894 -0.0697802 0.0796071
TCL: Running for 100000 steps
ETITLE: TS BOND ANGLE DIHED IMPRP ELECT VDW BOUNDARY MISC KINETIC TOTAL TEMP POTENTIAL TOTAL3 TEMPAVG PRESSURE GPRESSURE VOLUME PRESSAVG GPRESSAVG
ENERGY: 0 0.0000 0.0000 0.0000 0.0000 -13424.8179 2344.0964 0.0000 0.0000 1716.7102 -9364.0113 299.3375 -11080.7215 -9363.6688 299.3375 348.5579 378.3307 42684.4532 348.5579 378.3307
ENERGY: 100000 0.0000 0.0000 0.0000 0.0000 -14126.5853 2562.8193 0.0000 0.0000 171.0692 -11392.6968 29.8288 -11563.7660 -11392.1684 30.9156 1077.7415 1147.2651 28361.2903 4.3146 4.3517
TCL: Running 100000 steps at 60 kelvin.
TCL: Setting parameter langevinTemp to 60
TCL: Running for 100000 steps
ETITLE: TS BOND ANGLE DIHED IMPRP ELECT VDW BOUNDARY MISC KINETIC TOTAL TEMP POTENTIAL TOTAL3 TEMPAVG PRESSURE GPRESSURE VOLUME PRESSAVG GPRESSAVG
ENERGY: 100000 0.0000 0.0000 0.0000 0.0000 -14126.5853 2562.8193 0.0000 0.0000 170.9809 -11392.7850 29.8134 -11563.7660 -11392.4579 29.8134 1082.7926 1147.3052 28361.2903 1082.7926 1147.3052
ENERGY: 200000 0.0000 0.0000 0.0000 0.0000 -13973.9733 2511.9693 0.0000 0.0000 350.6306 -11111.3735 61.1384 -11462.0041 -11110.2929 59.8572 1078.1761 1125.5747 28348.7145 4.3508 4.2918
TCL: Running 100000 steps at 90 kelvin.
TCL: Setting parameter langevinTemp to 90
TCL: Running for 100000 steps
ETITLE: TS BOND ANGLE DIHED IMPRP ELECT VDW BOUNDARY MISC KINETIC TOTAL TEMP POTENTIAL TOTAL3 TEMPAVG PRESSURE GPRESSURE VOLUME PRESSAVG GPRESSAVG
ENERGY: 200000 0.0000 0.0000 0.0000 0.0000 -13973.9733 2511.9693 0.0000 0.0000 350.4498 -11111.5543 61.1068 -11462.0041 -11110.8504 61.1068 1076.6985 1125.8398 28348.7145 1076.6985 1125.8398
ENERGY: 300000 0.0000 0.0000 0.0000 0.0000 -13676.5683 2291.3345 0.0000 0.0000 516.5784 -10868.6554 90.0742 -11385.2338 -10866.9602 89.8348 -392.2033 -346.8651 28488.5178 5.3596 5.2833
TCL: Running 100000 steps at 120 kelvin.
TCL: Setting parameter langevinTemp to 120
TCL: Running for 100000 steps
ETITLE: TS BOND ANGLE DIHED IMPRP ELECT VDW BOUNDARY MISC KINETIC TOTAL TEMP POTENTIAL TOTAL3 TEMPAVG PRESSURE GPRESSURE VOLUME PRESSAVG GPRESSAVG
ENERGY: 300000 0.0000 0.0000 0.0000 0.0000 -13676.5683 2291.3345 0.0000 0.0000 516.3237 -10868.9101 90.0298 -11385.2338 -10868.0715 90.0298 -394.6639 -346.7012 28488.5178 -394.6639 -346.7012
ENERGY: 400000 0.0000 0.0000 0.0000 0.0000 -13495.6335 2274.9708 0.0000 0.0000 699.9413 -10520.7214 122.0466 -11220.6627 -10518.6267 120.0169 63.5958 187.1874 28403.1574 4.0695 4.0866
TCL: Running 100000 steps at 150 kelvin.
TCL: Setting parameter langevinTemp to 150
TCL: Running for 100000 steps
ETITLE: TS BOND ANGLE DIHED IMPRP ELECT VDW BOUNDARY MISC KINETIC TOTAL TEMP POTENTIAL TOTAL3 TEMPAVG PRESSURE GPRESSURE VOLUME PRESSAVG GPRESSAVG
ENERGY: 400000 0.0000 0.0000 0.0000 0.0000 -13495.6335 2274.9708 0.0000 0.0000 699.5747 -10521.0880 121.9827 -11220.6627 -10519.8418 121.9827 124.5465 187.4849 28403.1574 124.5465 187.4849
ENERGY: 500000 0.0000 0.0000 0.0000 0.0000 -13330.7999 2234.0073 0.0000 0.0000 830.5009 -10266.2917 144.8119 -11096.7927 -10263.6771 149.7338 44.8534 96.6030 28608.9182 4.3888 4.4949
TCL: Running 100000 steps at 180 kelvin.
TCL: Setting parameter langevinTemp to 180
TCL: Running for 100000 steps
ETITLE: TS BOND ANGLE DIHED IMPRP ELECT VDW BOUNDARY MISC KINETIC TOTAL TEMP POTENTIAL TOTAL3 TEMPAVG PRESSURE GPRESSURE VOLUME PRESSAVG GPRESSAVG
ENERGY: 500000 0.0000 0.0000 0.0000 0.0000 -13330.7999 2234.0073 0.0000 0.0000 830.0564 -10266.7363 144.7344 -11096.7927 -10265.1249 144.7344 35.1689 96.8092 28608.9182 35.1689 96.8092
ENERGY: 600000 0.0000 0.0000 0.0000 0.0000 -12902.8822 2061.2356 0.0000 0.0000 1035.7841 -9805.8625 180.6065 -10841.6466 -9804.3646 179.8212 -160.0548 -94.9735 28314.7385 3.7365 3.7509
TCL: Running 100000 steps at 210 kelvin.
TCL: Setting parameter langevinTemp to 210
TCL: Running for 100000 steps
ETITLE: TS BOND ANGLE DIHED IMPRP ELECT VDW BOUNDARY MISC KINETIC TOTAL TEMP POTENTIAL TOTAL3 TEMPAVG PRESSURE GPRESSURE VOLUME PRESSAVG GPRESSAVG
ENERGY: 600000 0.0000 0.0000 0.0000 0.0000 -12902.8822 2061.2356 0.0000 0.0000 1035.2802 -9806.3664 180.5186 -10841.6466 -9804.4030 180.5186 -164.7644 -97.4288 28314.7385 -164.7644 -97.4288
ENERGY: 700000 0.0000 0.0000 0.0000 0.0000 -12285.9434 1914.6311 0.0000 0.0000 1179.0867 -9192.2256 205.5937 -10371.3123 -9189.9978 209.6657 338.8584 373.4225 28346.3215 2.6951 2.7765
TCL: Running 100000 steps at 240 kelvin.
TCL: Setting parameter langevinTemp to 240
TCL: Running for 100000 steps
ETITLE: TS BOND ANGLE DIHED IMPRP ELECT VDW BOUNDARY MISC KINETIC TOTAL TEMP POTENTIAL TOTAL3 TEMPAVG PRESSURE GPRESSURE VOLUME PRESSAVG GPRESSAVG
ENERGY: 700000 0.0000 0.0000 0.0000 0.0000 -12285.9434 1914.6311 0.0000 0.0000 1178.5016 -9192.8108 205.4917 -10371.3123 -9191.0429 205.4917 301.6893 373.0745 28346.3215 301.6893 373.0745
ENERGY: 800000 0.0000 0.0000 0.0000 0.0000 -11470.3427 1546.5877 0.0000 0.0000 1355.6390 -8568.1160 236.3786 -9923.7550 -8564.4596 239.7048 -1225.8655 -1157.2270 28764.6278 2.6323 2.6293
TCL: Running 100000 steps at 270 kelvin.
TCL: Setting parameter langevinTemp to 270
TCL: Running for 100000 steps
ETITLE: TS BOND ANGLE DIHED IMPRP ELECT VDW BOUNDARY MISC KINETIC TOTAL TEMP POTENTIAL TOTAL3 TEMPAVG PRESSURE GPRESSURE VOLUME PRESSAVG GPRESSAVG
ENERGY: 800000 0.0000 0.0000 0.0000 0.0000 -11470.3427 1546.5877 0.0000 0.0000 1354.9725 -8568.7824 236.2624 -9923.7550 -8566.7914 236.2624 -1254.2586 -1156.0209 28764.6278 -1254.2586 -1156.0209
ENERGY: 900000 0.0000 0.0000 0.0000 0.0000 -10925.8867 1485.4868 0.0000 0.0000 1503.3538 -7937.0461 262.1352 -9440.3999 -7932.4253 270.0323 -370.0678 -286.3283 29378.9621 4.0388 4.0011
TCL: Running 1000000 steps at 300 kelvin.
TCL: Setting parameter langevinTemp to 300
TCL: Running for 1000000 steps
ETITLE: TS BOND ANGLE DIHED IMPRP ELECT VDW BOUNDARY MISC KINETIC TOTAL TEMP POTENTIAL TOTAL3 TEMPAVG PRESSURE GPRESSURE VOLUME PRESSAVG GPRESSAVG
ENERGY: 900000 0.0000 0.0000 0.0000 0.0000 -10925.8867 1485.4868 0.0000 0.0000 1502.5843 -7937.8156 262.0010 -9440.3999 -7935.1124 262.0010 -363.3350 -284.5905 29378.9621 -363.3350 -284.5905
ENERGY: 1100000 0.0000 0.0000 0.0000 0.0000 -10511.4214 1362.7839 0.0000 0.0000 1798.5912 -7350.0462 313.6148 -9148.6374 -7345.5694 299.9583 -357.7481 -240.6476 29798.5166 3.2179 3.2827
ENERGY: 1300000 0.0000 0.0000 0.0000 0.0000 -10600.7289 1466.1689 0.0000 0.0000 1752.9948 -7381.5653 305.6643 -9134.5600 -7378.3636 300.4236 483.2729 594.6423 29666.3561 2.7842 2.6994
ENERGY: 1500000 0.0000 0.0000 0.0000 0.0000 -10443.7106 1344.9426 0.0000 0.0000 1721.0409 -7377.7270 300.0926 -9098.7680 -7373.8908 300.8829 -394.5084 -308.5503 29915.7348 2.7387 2.7720
ENERGY: 1700000 0.0000 0.0000 0.0000 0.0000 -10540.0463 1421.4176 0.0000 0.0000 1765.5763 -7353.0524 307.8581 -9118.6287 -7349.2553 299.9567 102.6617 212.4987 30086.2982 4.1160 4.0691
ENERGY: 1900000 0.0000 0.0000 0.0000 0.0000 -10466.3178 1371.9914 0.0000 0.0000 1711.9766 -7382.3498 298.5121 -9094.3264 -7381.4522 300.6851 -237.4205 -136.7887 29963.8040 4.0759 3.9437
TCL: Exiting due to exit command.
