Info: SIMULATION PARAMETERS:
Info: TIMESTEP               2
Info: NUMBER OF STEPS        0
Info: STEPS PER CYCLE        10
Info: PERIODIC CELL BASIS 1  37.435 0 0
Info: PERIODIC CELL BASIS 2  0 35.411 0
Info: PERIODIC CELL BASIS 3  0 0 31.855
Info: PERIODIC CELL CENTER   0 0 0
Info: WRAPPING WATERS AROUND PERIODIC BOUNDARIES ON OUTPUT.
Info: WRAPPING ALL CLUSTERS AROUND PERIODIC BOUNDARIES ON OUTPUT.
Info: FIRST LDB TIMESTEP     50
Info: LAST LDB TIMESTEP     -1
Info: HOM BACKGROUND SCALING 1
Info: PME BACKGROUND SCALING 1
Info: MIN ATOMS PER PATCH    40
Info: EMPTY PATCH LOAD       40 ATOMS
Info: INITIAL TEMPERATURE    300
Info: CENTER OF MASS MOVING INITIALLY? NO
Info: DIELECTRIC             1
Info: EXCLUDE                SCALED ONE-FOUR
Info: 1-4 ELECTROSTATICS SCALED BY 0.833333
Info: MODIFIED 1-4 VDW PARAMETERS WILL BE USED
Info: DCD FILENAME           mobley_6353617_equil.dcd
Info: DCD FREQUENCY          100000
Info: DCD FIRST STEP         100000
Info: DCD FILE WILL CONTAIN UNIT CELL DATA
Info: XST FILENAME           mobley_6353617_equil.xst
Info: XST FREQUENCY          100000
Info: NO VELOCITY DCD OUTPUT
Info: NO FORCE DCD OUTPUT
Info: OUTPUT FILENAME        mobley_6353617_equil
Info: BINARY OUTPUT FILES WILL BE USED
Info: RESTART FILENAME       mobley_6353617_equil.restart
Info: RESTART FREQUENCY      100000
Info: BINARY RESTART FILES WILL BE USED
Info: CUTOFF                 9
Info: PAIRLIST DISTANCE      11
Info: PAIRLIST SHRINK RATE   0.01
Info: PAIRLIST GROW RATE     0.01
Info: PAIRLIST TRIGGER       0.3
Info: PAIRLISTS PER CYCLE    2
Info: PAIRLISTS ENABLED
Info: MARGIN                 8
Info: HYDROGEN GROUP CUTOFF  2.5
Info: PATCH DIMENSION        21.5
Info: ENERGY OUTPUT STEPS    100000
Info: ENERGY EVALUATION STEPS    100000
Info: OUTPUT ENERGY PRECISION 4
Info: CROSSTERM ENERGY INCLUDED IN DIHEDRAL
Info: TIMING OUTPUT STEPS    1000000
Info: PRESSURE OUTPUT STEPS  100000
Info: FIXED ATOMS ACTIVE
Info: LANGEVIN DYNAMICS ACTIVE
Info: LANGEVIN TEMPERATURE   30
Info: LANGEVIN USING BBK INTEGRATOR
Info: LANGEVIN DAMPING COEFFICIENT IS 1 INVERSE PS
Info: LANGEVIN DYNAMICS APPLIED TO HYDROGENS
Info: LANGEVIN PISTON PRESSURE CONTROL ACTIVE
Info:        TARGET PRESSURE IS 1.01325 BAR
Info:     OSCILLATION PERIOD IS 50 FS
Info:             DECAY TIME IS 25 FS
Info:     PISTON TEMPERATURE IS 300 K
Info:       PRESSURE CONTROL IS GROUP-BASED
Info:    INITIAL STRAIN RATE IS 0 0 0
Info:       CELL FLUCTUATION IS ISOTROPIC
Info: PARTICLE MESH EWALD (PME) ACTIVE
Info: PME TOLERANCE               1e-06
Info: PME EWALD COEFFICIENT       0.348832
Info: PME INTERPOLATION ORDER     4
Info: PME GRID DIMENSIONS         40 36 32
Info: PME MAXIMUM GRID SPACING    1
Info: FULL ELECTROSTATIC EVALUATION FREQUENCY      2
Info: USING VERLET I (r-RESPA) MTS SCHEME.
Info: C1 SPLITTING OF LONG RANGE ELECTROSTATICS
Info: PLACING ATOMS IN PATCHES BY HYDROGEN GROUPS
Info: RIGID BONDS TO HYDROGEN : ALL
Info:         ERROR TOLERANCE : 1e-08
Info:          MAX ITERATIONS : 100
Info: RIGID WATER USING SETTLE ALGORITHM
Info: RANDOM NUMBER SEED     1744084734
Info: USE HYDROGEN BONDS?    NO
Info: Using AMBER format force field!
Info: AMBER PARM FILE        mobley_6353617.prmtop
Info: COORDINATE PDB         mobley_6353617.pdb
Info: Exclusions will be read from PARM file!
Info: SCNB (VDW SCALING)     2
Info: USING ARITHMETIC MEAN TO COMBINE L-J SIGMA PARAMETERS
Info: BINARY COORDINATES     mobley_6353617_min.coor
Info: SUMMARY OF PARAMETERS:
Info: 10 BONDS
Info: 12 ANGLES
Info:   12 HARMONIC
Info:   0 COSINE-BASED
Info: 9 DIHEDRAL
Info: 0 IMPROPER
Info: 0 CROSSTERM
Info: 0 VDW
Info: 45 VDW_PAIRS
Info: 0 NBTHOLE_PAIRS
Info: STRUCTURE SUMMARY:
Info: 2935 ATOMS
Info: 2935 BONDS
Info: 25 ANGLES
Info: 42 DIHEDRALS
Info: 0 IMPROPERS
Info: 0 CROSSTERMS
Info: 2987 EXCLUSIONS
Info: 16 FIXED ATOMS
Info: 2926 RIGID BONDS
Info: 7 RIGID BONDS BETWEEN FIXED ATOMS
Info: 5838 DEGREES OF FREEDOM
Info: 982 HYDROGEN GROUPS
Info: 4 ATOMS IN LARGEST HYDROGEN GROUP
Info: 982 MIGRATION GROUPS
Info: 4 ATOMS IN LARGEST MIGRATION GROUP
Info: 9 HYDROGEN GROUPS WITH ALL ATOMS FIXED
Info: TOTAL MASS = 17650.7 amu
Info: TOTAL CHARGE = 1.30385e-08 e
Info: MASS DENSITY = 0.694109 g/cm^3
Info: ATOM DENSITY = 0.0695047 atoms/A^3
Info: ADDED 0 IMPLICIT EXCLUSIONS
Info: NONBONDED TABLE R-SQUARED SPACING: 0.0625
Info: NONBONDED TABLE SIZE: 705 POINTS
Info: REMOVING COM VELOCITY 0.120363 -0.0680081 -0.165697
TCL: Running for 100000 steps
ETITLE: TS BOND ANGLE DIHED IMPRP ELECT VDW BOUNDARY MISC KINETIC TOTAL TEMP POTENTIAL TOTAL3 TEMPAVG PRESSURE GPRESSURE VOLUME PRESSAVG GPRESSAVG
ENERGY: 0 0.0000 0.0000 0.0000 0.0000 -13687.1843 2322.5294 0.0000 0.0000 1709.0545 -9655.6004 294.6336 -11364.6549 -9655.2610 294.6336 73.7358 108.7421 42227.3316 73.7358 108.7421
ENERGY: 100000 0.0000 0.0000 0.0000 0.0000 -14116.2771 2403.9362 0.0000 0.0000 176.0992 -11536.2417 30.3587 -11712.3409 -11536.0363 30.8638 -325.5356 -290.0556 29655.0750 3.7608 3.6758
TCL: Running 100000 steps at 60 kelvin.
TCL: Setting parameter langevinTemp to 60
TCL: Running for 100000 steps
ETITLE: TS BOND ANGLE DIHED IMPRP ELECT VDW BOUNDARY MISC KINETIC TOTAL TEMP POTENTIAL TOTAL3 TEMPAVG PRESSURE GPRESSURE VOLUME PRESSAVG GPRESSAVG
ENERGY: 100000 0.0000 0.0000 0.0000 0.0000 -14116.2771 2403.9362 0.0000 0.0000 176.0137 -11536.3271 30.3440 -11712.3409 -11535.8821 30.3440 -331.4100 -290.3823 29655.0750 -331.4100 -290.3823
ENERGY: 200000 0.0000 0.0000 0.0000 0.0000 -14080.4385 2393.6554 0.0000 0.0000 362.7280 -11324.0551 62.5327 -11686.7831 -11322.8605 59.9835 -221.7493 -172.7198 29174.4502 5.3553 5.2863
TCL: Running 100000 steps at 90 kelvin.
TCL: Setting parameter langevinTemp to 90
TCL: Running for 100000 steps
ETITLE: TS BOND ANGLE DIHED IMPRP ELECT VDW BOUNDARY MISC KINETIC TOTAL TEMP POTENTIAL TOTAL3 TEMPAVG PRESSURE GPRESSURE VOLUME PRESSAVG GPRESSAVG
ENERGY: 200000 0.0000 0.0000 0.0000 0.0000 -14080.4385 2393.6554 0.0000 0.0000 362.5546 -11324.2285 62.5028 -11686.7831 -11323.5404 62.5028 -232.5843 -172.5306 29174.4502 -232.5843 -172.5306
ENERGY: 300000 0.0000 0.0000 0.0000 0.0000 -14030.5801 2393.0342 0.0000 0.0000 513.5205 -11124.0254 88.5287 -11637.5459 -11122.3977 90.1877 69.1404 140.4796 28663.1630 3.4771 3.4939
TCL: Running 100000 steps at 120 kelvin.
TCL: Setting parameter langevinTemp to 120
TCL: Running for 100000 steps
ETITLE: TS BOND ANGLE DIHED IMPRP ELECT VDW BOUNDARY MISC KINETIC TOTAL TEMP POTENTIAL TOTAL3 TEMPAVG PRESSURE GPRESSURE VOLUME PRESSAVG GPRESSAVG
ENERGY: 300000 0.0000 0.0000 0.0000 0.0000 -14030.5801 2393.0342 0.0000 0.0000 513.2614 -11124.2845 88.4840 -11637.5459 -11123.2317 88.4840 90.4517 140.6139 28663.1630 90.4517 140.6139
ENERGY: 400000 0.0000 0.0000 0.0000 0.0000 -13861.0428 2327.2573 0.0000 0.0000 711.7899 -10821.9957 122.7095 -11533.7855 -10820.5206 119.8629 136.5806 158.8350 28349.7942 4.4424 4.3073
TCL: Running 100000 steps at 150 kelvin.
TCL: Setting parameter langevinTemp to 150
TCL: Running for 100000 steps
ETITLE: TS BOND ANGLE DIHED IMPRP ELECT VDW BOUNDARY MISC KINETIC TOTAL TEMP POTENTIAL TOTAL3 TEMPAVG PRESSURE GPRESSURE VOLUME PRESSAVG GPRESSAVG
ENERGY: 400000 0.0000 0.0000 0.0000 0.0000 -13861.0428 2327.2573 0.0000 0.0000 711.4397 -10822.3458 122.6491 -11533.7855 -10820.8614 122.6491 111.1806 158.2320 28349.7942 111.1806 158.2320
ENERGY: 500000 0.0000 0.0000 0.0000 0.0000 -13503.3555 2163.2818 0.0000 0.0000 850.2295 -10489.8442 146.5759 -11340.0737 -10488.4045 150.2412 -784.0230 -719.6429 28921.3875 4.3321 4.4368
TCL: Running 100000 steps at 180 kelvin.
TCL: Setting parameter langevinTemp to 180
TCL: Running for 100000 steps
ETITLE: TS BOND ANGLE DIHED IMPRP ELECT VDW BOUNDARY MISC KINETIC TOTAL TEMP POTENTIAL TOTAL3 TEMPAVG PRESSURE GPRESSURE VOLUME PRESSAVG GPRESSAVG
ENERGY: 500000 0.0000 0.0000 0.0000 0.0000 -13503.3555 2163.2818 0.0000 0.0000 849.8003 -10490.2734 146.5019 -11340.0737 -10488.6151 146.5019 -766.2753 -719.5383 28921.3875 -766.2753 -719.5383
ENERGY: 600000 0.0000 0.0000 0.0000 0.0000 -13267.7674 2217.1062 0.0000 0.0000 1031.1416 -10019.5196 177.7643 -11050.6612 -10019.1265 179.9939 924.4039 967.8420 28598.4763 4.7381 4.6570
TCL: Running 100000 steps at 210 kelvin.
TCL: Setting parameter langevinTemp to 210
TCL: Running for 100000 steps
ETITLE: TS BOND ANGLE DIHED IMPRP ELECT VDW BOUNDARY MISC KINETIC TOTAL TEMP POTENTIAL TOTAL3 TEMPAVG PRESSURE GPRESSURE VOLUME PRESSAVG GPRESSAVG
ENERGY: 600000 0.0000 0.0000 0.0000 0.0000 -13267.7674 2217.1062 0.0000 0.0000 1030.6377 -10020.0236 177.6774 -11050.6612 -10018.3141 177.6774 901.5904 966.5947 28598.4763 901.5904 966.5947
ENERGY: 700000 0.0000 0.0000 0.0000 0.0000 -12346.3328 1767.0154 0.0000 0.0000 1238.9231 -9340.3943 213.5850 -10579.3174 -9337.0148 209.8182 -835.5431 -745.2578 28472.4876 3.7322 3.6311
TCL: Running 100000 steps at 240 kelvin.
TCL: Setting parameter langevinTemp to 240
TCL: Running for 100000 steps
ETITLE: TS BOND ANGLE DIHED IMPRP ELECT VDW BOUNDARY MISC KINETIC TOTAL TEMP POTENTIAL TOTAL3 TEMPAVG PRESSURE GPRESSURE VOLUME PRESSAVG GPRESSAVG
ENERGY: 700000 0.0000 0.0000 0.0000 0.0000 -12346.3328 1767.0154 0.0000 0.0000 1238.3290 -9340.9884 213.4825 -10579.3174 -9338.3032 213.4825 -809.9014 -745.3194 28472.4876 -809.9014 -745.3194
ENERGY: 800000 0.0000 0.0000 0.0000 0.0000 -11714.4153 1618.5580 0.0000 0.0000 1407.0826 -8688.7748 242.5749 -10095.8573 -8686.6470 239.9749 -389.7685 -306.6787 28675.2266 2.9679 3.0438
TCL: Running 100000 steps at 270 kelvin.
TCL: Setting parameter langevinTemp to 270
TCL: Running for 100000 steps
ETITLE: TS BOND ANGLE DIHED IMPRP ELECT VDW BOUNDARY MISC KINETIC TOTAL TEMP POTENTIAL TOTAL3 TEMPAVG PRESSURE GPRESSURE VOLUME PRESSAVG GPRESSAVG
ENERGY: 800000 0.0000 0.0000 0.0000 0.0000 -11714.4153 1618.5580 0.0000 0.0000 1406.3881 -8689.4693 242.4552 -10095.8573 -8686.6693 242.4552 -400.3772 -307.7481 28675.2266 -400.3772 -307.7481
ENERGY: 900000 0.0000 0.0000 0.0000 0.0000 -11168.3069 1459.5527 0.0000 0.0000 1566.8473 -8141.9069 270.1177 -9708.7542 -8138.7300 270.1325 -874.4545 -836.9231 29829.3359 2.4554 2.5331
TCL: Running 1000000 steps at 300 kelvin.
TCL: Setting parameter langevinTemp to 300
TCL: Running for 1000000 steps
ETITLE: TS BOND ANGLE DIHED IMPRP ELECT VDW BOUNDARY MISC KINETIC TOTAL TEMP POTENTIAL TOTAL3 TEMPAVG PRESSURE GPRESSURE VOLUME PRESSAVG GPRESSAVG
ENERGY: 900000 0.0000 0.0000 0.0000 0.0000 -11168.3069 1459.5527 0.0000 0.0000 1566.0412 -8142.7130 269.9787 -9708.7542 -8140.2213 269.9787 -915.7246 -838.9716 29829.3359 -915.7246 -838.9716
ENERGY: 1100000 0.0000 0.0000 0.0000 0.0000 -10886.6351 1535.4518 0.0000 0.0000 1693.2802 -7657.9032 291.9141 -9351.1834 -7654.1619 300.0574 599.0035 622.5826 30427.1604 3.1660 3.1624
ENERGY: 1300000 0.0000 0.0000 0.0000 0.0000 -10783.3405 1448.9880 0.0000 0.0000 1782.1988 -7552.1537 307.2433 -9334.3524 -7547.4926 301.3191 38.1684 107.7762 30382.9189 2.2846 2.2945
ENERGY: 1500000 0.0000 0.0000 0.0000 0.0000 -10792.4271 1430.7507 0.0000 0.0000 1709.4044 -7652.2719 294.6939 -9361.6763 -7649.5893 300.1562 173.8334 232.0116 29830.5363 2.6568 2.4517
ENERGY: 1700000 0.0000 0.0000 0.0000 0.0000 -10740.9340 1392.2268 0.0000 0.0000 1739.2703 -7609.4369 299.8426 -9348.7072 -7603.7676 300.3445 -278.8836 -187.7062 30170.0968 3.5249 3.4276
ENERGY: 1900000 0.0000 0.0000 0.0000 0.0000 -10657.7816 1394.9387 0.0000 0.0000 1727.6128 -7535.2300 297.8329 -9262.8428 -7533.4185 300.3363 -38.7163 1.1508 30281.2133 2.9397 2.8748
TCL: Exiting due to exit command.
