Info: SIMULATION PARAMETERS:
Info: TIMESTEP               2
Info: NUMBER OF STEPS        0
Info: STEPS PER CYCLE        10
Info: PERIODIC CELL BASIS 1  37.38 0 0
Info: PERIODIC CELL BASIS 2  0 35.267 0
Info: PERIODIC CELL BASIS 3  0 0 33.088
Info: PERIODIC CELL CENTER   0 0 0
Info: WRAPPING WATERS AROUND PERIODIC BOUNDARIES ON OUTPUT.
Info: WRAPPING ALL CLUSTERS AROUND PERIODIC BOUNDARIES ON OUTPUT.
Info: FIRST LDB TIMESTEP     50
Info: LAST LDB TIMESTEP     -1
Info: HOM BACKGROUND SCALING 1
Info: PME BACKGROUND SCALING 1
Info: MIN ATOMS PER PATCH    40
Info: EMPTY PATCH LOAD       40 ATOMS
Info: INITIAL TEMPERATURE    300
Info: CENTER OF MASS MOVING INITIALLY? NO
Info: DIELECTRIC             1
Info: EXCLUDE                SCALED ONE-FOUR
Info: 1-4 ELECTROSTATICS SCALED BY 0.833333
Info: MODIFIED 1-4 VDW PARAMETERS WILL BE USED
Info: DCD FILENAME           mobley_2126135_equil.dcd
Info: DCD FREQUENCY          100000
Info: DCD FIRST STEP         100000
Info: DCD FILE WILL CONTAIN UNIT CELL DATA
Info: XST FILENAME           mobley_2126135_equil.xst
Info: XST FREQUENCY          100000
Info: NO VELOCITY DCD OUTPUT
Info: NO FORCE DCD OUTPUT
Info: OUTPUT FILENAME        mobley_2126135_equil
Info: BINARY OUTPUT FILES WILL BE USED
Info: RESTART FILENAME       mobley_2126135_equil.restart
Info: RESTART FREQUENCY      100000
Info: BINARY RESTART FILES WILL BE USED
Info: CUTOFF                 9
Info: PAIRLIST DISTANCE      11
Info: PAIRLIST SHRINK RATE   0.01
Info: PAIRLIST GROW RATE     0.01
Info: PAIRLIST TRIGGER       0.3
Info: PAIRLISTS PER CYCLE    2
Info: PAIRLISTS ENABLED
Info: MARGIN                 8
Info: HYDROGEN GROUP CUTOFF  2.5
Info: PATCH DIMENSION        21.5
Info: ENERGY OUTPUT STEPS    100000
Info: ENERGY EVALUATION STEPS    100000
Info: OUTPUT ENERGY PRECISION 4
Info: CROSSTERM ENERGY INCLUDED IN DIHEDRAL
Info: TIMING OUTPUT STEPS    1000000
Info: PRESSURE OUTPUT STEPS  100000
Info: FIXED ATOMS ACTIVE
Info: LANGEVIN DYNAMICS ACTIVE
Info: LANGEVIN TEMPERATURE   30
Info: LANGEVIN USING BBK INTEGRATOR
Info: LANGEVIN DAMPING COEFFICIENT IS 1 INVERSE PS
Info: LANGEVIN DYNAMICS APPLIED TO HYDROGENS
Info: LANGEVIN PISTON PRESSURE CONTROL ACTIVE
Info:        TARGET PRESSURE IS 1.01325 BAR
Info:     OSCILLATION PERIOD IS 50 FS
Info:             DECAY TIME IS 25 FS
Info:     PISTON TEMPERATURE IS 300 K
Info:       PRESSURE CONTROL IS GROUP-BASED
Info:    INITIAL STRAIN RATE IS 0 0 0
Info:       CELL FLUCTUATION IS ISOTROPIC
Info: PARTICLE MESH EWALD (PME) ACTIVE
Info: PME TOLERANCE               1e-06
Info: PME EWALD COEFFICIENT       0.348832
Info: PME INTERPOLATION ORDER     4
Info: PME GRID DIMENSIONS         40 36 36
Info: PME MAXIMUM GRID SPACING    1
Info: FULL ELECTROSTATIC EVALUATION FREQUENCY      2
Info: USING VERLET I (r-RESPA) MTS SCHEME.
Info: C1 SPLITTING OF LONG RANGE ELECTROSTATICS
Info: PLACING ATOMS IN PATCHES BY HYDROGEN GROUPS
Info: RIGID BONDS TO HYDROGEN : ALL
Info:         ERROR TOLERANCE : 1e-08
Info:          MAX ITERATIONS : 100
Info: RIGID WATER USING SETTLE ALGORITHM
Info: RANDOM NUMBER SEED     1744093909
Info: USE HYDROGEN BONDS?    NO
Info: Using AMBER format force field!
Info: AMBER PARM FILE        mobley_2126135.prmtop
Info: COORDINATE PDB         mobley_2126135.pdb
Info: Exclusions will be read from PARM file!
Info: SCNB (VDW SCALING)     2
Info: USING ARITHMETIC MEAN TO COMBINE L-J SIGMA PARAMETERS
Info: BINARY COORDINATES     mobley_2126135_min.coor
Info: SUMMARY OF PARAMETERS:
Info: 9 BONDS
Info: 9 ANGLES
Info:   9 HARMONIC
Info:   0 COSINE-BASED
Info: 6 DIHEDRAL
Info: 0 IMPROPER
Info: 0 CROSSTERM
Info: 0 VDW
Info: 28 VDW_PAIRS
Info: 0 NBTHOLE_PAIRS
Info: STRUCTURE SUMMARY:
Info: 2908 ATOMS
Info: 2908 BONDS
Info: 31 ANGLES
Info: 47 DIHEDRALS
Info: 0 IMPROPERS
Info: 0 CROSSTERMS
Info: 2977 EXCLUSIONS
Info: 19 FIXED ATOMS
Info: 2899 RIGID BONDS
Info: 10 RIGID BONDS BETWEEN FIXED ATOMS
Info: 5778 DEGREES OF FREEDOM
Info: 972 HYDROGEN GROUPS
Info: 4 ATOMS IN LARGEST HYDROGEN GROUP
Info: 972 MIGRATION GROUPS
Info: 4 ATOMS IN LARGEST MIGRATION GROUP
Info: 9 HYDROGEN GROUPS WITH ALL ATOMS FIXED
Info: TOTAL MASS = 17471.6 amu
Info: TOTAL CHARGE = -0.000100028 e
Info: MASS DENSITY = 0.66514 g/cm^3
Info: ATOM DENSITY = 0.0666678 atoms/A^3
Info: ADDED 0 IMPLICIT EXCLUSIONS
Info: NONBONDED TABLE R-SQUARED SPACING: 0.0625
Info: NONBONDED TABLE SIZE: 705 POINTS
Info: REMOVING COM VELOCITY 0.0383624 0.0888078 -0.114847
TCL: Running for 100000 steps
ETITLE: TS BOND ANGLE DIHED IMPRP ELECT VDW BOUNDARY MISC KINETIC TOTAL TEMP POTENTIAL TOTAL3 TEMPAVG PRESSURE GPRESSURE VOLUME PRESSAVG GPRESSAVG
ENERGY: 0 0.0000 0.0000 0.0000 0.0000 -13419.4018 2336.7900 0.0000 0.0000 1700.4745 -9382.1372 296.1986 -11082.6117 -9381.8298 296.1986 298.7755 337.2493 43619.2639 298.7755 337.2493
ENERGY: 100000 0.0000 0.0000 0.0000 0.0000 -14083.9043 2496.2894 0.0000 0.0000 174.5676 -11413.0473 30.4072 -11587.6149 -11412.4756 30.9853 561.9941 605.3573 28359.4639 4.4366 4.4453
TCL: Running 100000 steps at 60 kelvin.
TCL: Setting parameter langevinTemp to 60
TCL: Running for 100000 steps
ETITLE: TS BOND ANGLE DIHED IMPRP ELECT VDW BOUNDARY MISC KINETIC TOTAL TEMP POTENTIAL TOTAL3 TEMPAVG PRESSURE GPRESSURE VOLUME PRESSAVG GPRESSAVG
ENERGY: 100000 0.0000 0.0000 0.0000 0.0000 -14083.9043 2496.2894 0.0000 0.0000 174.4745 -11413.1404 30.3910 -11587.6149 -11412.8239 30.3910 548.0140 605.3566 28359.4639 548.0140 605.3566
ENERGY: 200000 0.0000 0.0000 0.0000 0.0000 -13903.3620 2391.2525 0.0000 0.0000 341.5157 -11170.5938 59.4872 -11512.1095 -11169.7738 59.9456 -26.5835 25.4396 28505.3800 5.0939 5.0484
TCL: Running 100000 steps at 90 kelvin.
TCL: Setting parameter langevinTemp to 90
TCL: Running for 100000 steps
ETITLE: TS BOND ANGLE DIHED IMPRP ELECT VDW BOUNDARY MISC KINETIC TOTAL TEMP POTENTIAL TOTAL3 TEMPAVG PRESSURE GPRESSURE VOLUME PRESSAVG GPRESSAVG
ENERGY: 200000 0.0000 0.0000 0.0000 0.0000 -13903.3620 2391.2525 0.0000 0.0000 341.3466 -11170.7629 59.4577 -11512.1095 -11170.1348 59.4577 -33.4078 25.1833 28505.3800 -33.4078 25.1833
ENERGY: 300000 0.0000 0.0000 0.0000 0.0000 -13700.0678 2284.8990 0.0000 0.0000 532.7888 -10882.3801 92.8043 -11415.1689 -10880.3202 89.9234 -488.9923 -505.2001 28587.6000 3.5813 3.7017
TCL: Running 100000 steps at 120 kelvin.
TCL: Setting parameter langevinTemp to 120
TCL: Running for 100000 steps
ETITLE: TS BOND ANGLE DIHED IMPRP ELECT VDW BOUNDARY MISC KINETIC TOTAL TEMP POTENTIAL TOTAL3 TEMPAVG PRESSURE GPRESSURE VOLUME PRESSAVG GPRESSAVG
ENERGY: 300000 0.0000 0.0000 0.0000 0.0000 -13700.0678 2284.8990 0.0000 0.0000 532.5358 -10882.6331 92.7602 -11415.1689 -10881.3453 92.7602 -549.2881 -504.3692 28587.6000 -549.2881 -504.3692
ENERGY: 400000 0.0000 0.0000 0.0000 0.0000 -13487.4431 2189.5382 0.0000 0.0000 681.9612 -10615.9437 118.7880 -11297.9049 -10614.5497 120.0229 -887.0771 -878.0555 28799.7648 5.0752 4.9654
TCL: Running 100000 steps at 150 kelvin.
TCL: Setting parameter langevinTemp to 150
TCL: Running for 100000 steps
ETITLE: TS BOND ANGLE DIHED IMPRP ELECT VDW BOUNDARY MISC KINETIC TOTAL TEMP POTENTIAL TOTAL3 TEMPAVG PRESSURE GPRESSURE VOLUME PRESSAVG GPRESSAVG
ENERGY: 400000 0.0000 0.0000 0.0000 0.0000 -13487.4431 2189.5382 0.0000 0.0000 681.6086 -10616.2963 118.7266 -11297.9049 -10614.5074 118.7266 -945.1887 -878.8521 28799.7648 -945.1887 -878.8521
ENERGY: 500000 0.0000 0.0000 0.0000 0.0000 -13268.0928 2133.4863 0.0000 0.0000 869.2351 -10265.3714 151.4084 -11134.6065 -10262.8895 149.9032 -624.2178 -604.8530 28539.7168 6.0933 5.9882
TCL: Running 100000 steps at 180 kelvin.
TCL: Setting parameter langevinTemp to 180
TCL: Running for 100000 steps
ETITLE: TS BOND ANGLE DIHED IMPRP ELECT VDW BOUNDARY MISC KINETIC TOTAL TEMP POTENTIAL TOTAL3 TEMPAVG PRESSURE GPRESSURE VOLUME PRESSAVG GPRESSAVG
ENERGY: 500000 0.0000 0.0000 0.0000 0.0000 -13268.0928 2133.4863 0.0000 0.0000 868.8192 -10265.7873 151.3360 -11134.6065 -10263.6247 151.3360 -650.3471 -604.1938 28539.7168 -650.3471 -604.1938
ENERGY: 600000 0.0000 0.0000 0.0000 0.0000 -12902.5342 2061.3532 0.0000 0.0000 1060.6253 -9780.5557 184.7459 -10841.1809 -9779.0120 179.5705 -25.1976 17.2434 28389.7436 4.5369 4.3911
TCL: Running 100000 steps at 210 kelvin.
TCL: Setting parameter langevinTemp to 210
TCL: Running for 100000 steps
ETITLE: TS BOND ANGLE DIHED IMPRP ELECT VDW BOUNDARY MISC KINETIC TOTAL TEMP POTENTIAL TOTAL3 TEMPAVG PRESSURE GPRESSURE VOLUME PRESSAVG GPRESSAVG
ENERGY: 600000 0.0000 0.0000 0.0000 0.0000 -12902.5342 2061.3532 0.0000 0.0000 1060.1020 -9781.0789 184.6548 -10841.1809 -9779.1653 184.6548 -38.8165 15.6687 28389.7436 -38.8165 15.6687
ENERGY: 700000 0.0000 0.0000 0.0000 0.0000 -12192.8858 1821.9922 0.0000 0.0000 1205.5325 -9165.3611 209.9867 -10370.8936 -9161.5827 210.1720 -158.4570 -112.0389 28235.1530 3.6884 3.7237
TCL: Running 100000 steps at 240 kelvin.
TCL: Setting parameter langevinTemp to 240
TCL: Running for 100000 steps
ETITLE: TS BOND ANGLE DIHED IMPRP ELECT VDW BOUNDARY MISC KINETIC TOTAL TEMP POTENTIAL TOTAL3 TEMPAVG PRESSURE GPRESSURE VOLUME PRESSAVG GPRESSAVG
ENERGY: 700000 0.0000 0.0000 0.0000 0.0000 -12192.8858 1821.9922 0.0000 0.0000 1204.9389 -9165.9548 209.8833 -10370.8936 -9164.3973 209.8833 -201.1586 -111.9095 28235.1530 -201.1586 -111.9095
ENERGY: 800000 0.0000 0.0000 0.0000 0.0000 -11686.2352 1716.2899 0.0000 0.0000 1362.0512 -8607.8941 237.2500 -9969.9453 -8604.1752 239.6675 37.2752 113.5569 29090.8479 2.7550 2.6852
TCL: Running 100000 steps at 270 kelvin.
TCL: Setting parameter langevinTemp to 270
TCL: Running for 100000 steps
ETITLE: TS BOND ANGLE DIHED IMPRP ELECT VDW BOUNDARY MISC KINETIC TOTAL TEMP POTENTIAL TOTAL3 TEMPAVG PRESSURE GPRESSURE VOLUME PRESSAVG GPRESSAVG
ENERGY: 800000 0.0000 0.0000 0.0000 0.0000 -11686.2352 1716.2899 0.0000 0.0000 1361.3409 -8608.6043 237.1263 -9969.9453 -8606.6329 237.1263 36.4427 116.2712 29090.8479 36.4427 116.2712
ENERGY: 900000 0.0000 0.0000 0.0000 0.0000 -11062.1935 1521.1916 0.0000 0.0000 1586.3222 -7954.6796 276.3149 -9541.0018 -7953.6542 269.2744 10.8548 25.5054 29001.6320 2.1083 2.0151
TCL: Running 1000000 steps at 300 kelvin.
TCL: Setting parameter langevinTemp to 300
TCL: Running for 1000000 steps
ETITLE: TS BOND ANGLE DIHED IMPRP ELECT VDW BOUNDARY MISC KINETIC TOTAL TEMP POTENTIAL TOTAL3 TEMPAVG PRESSURE GPRESSURE VOLUME PRESSAVG GPRESSAVG
ENERGY: 900000 0.0000 0.0000 0.0000 0.0000 -11062.1935 1521.1916 0.0000 0.0000 1585.5071 -7955.4948 276.1729 -9541.0018 -7953.7113 276.1729 -34.7084 23.4099 29001.6320 -34.7084 23.4099
ENERGY: 1100000 0.0000 0.0000 0.0000 0.0000 -10599.1238 1396.9528 0.0000 0.0000 1775.5368 -7426.6342 309.2734 -9202.1710 -7421.2626 300.3273 -130.0084 -43.6821 29682.8621 4.3741 4.2784
ENERGY: 1300000 0.0000 0.0000 0.0000 0.0000 -10430.3635 1305.6974 0.0000 0.0000 1714.7701 -7409.8959 298.6887 -9124.6661 -7406.5452 300.2537 -990.6185 -879.9563 30508.0452 2.8740 2.7606
ENERGY: 1500000 0.0000 0.0000 0.0000 0.0000 -10549.4153 1345.0840 0.0000 0.0000 1694.1577 -7510.1735 295.0983 -9204.3313 -7506.0938 300.5996 -529.8431 -492.2536 29802.1019 2.8870 2.8999
ENERGY: 1700000 0.0000 0.0000 0.0000 0.0000 -10655.1511 1478.8987 0.0000 0.0000 1681.3011 -7494.9512 292.8589 -9176.2524 -7493.0622 299.9349 602.3091 689.4179 29765.8002 3.4158 3.4595
ENERGY: 1900000 0.0000 0.0000 0.0000 0.0000 -10501.1701 1347.6084 0.0000 0.0000 1719.5204 -7434.0413 299.5161 -9153.5617 -7429.7472 300.3365 -783.3791 -684.2668 30392.6070 3.0560 3.2017
TCL: Exiting due to exit command.
