Info: SIMULATION PARAMETERS:
Info: TIMESTEP               2
Info: NUMBER OF STEPS        0
Info: STEPS PER CYCLE        10
Info: PERIODIC CELL BASIS 1  36.592 0 0
Info: PERIODIC CELL BASIS 2  0 34.26 0
Info: PERIODIC CELL BASIS 3  0 0 35.516
Info: PERIODIC CELL CENTER   0 0 0
Info: WRAPPING WATERS AROUND PERIODIC BOUNDARIES ON OUTPUT.
Info: WRAPPING ALL CLUSTERS AROUND PERIODIC BOUNDARIES ON OUTPUT.
Info: FIRST LDB TIMESTEP     50
Info: LAST LDB TIMESTEP     -1
Info: HOM BACKGROUND SCALING 1
Info: PME BACKGROUND SCALING 1
Info: MIN ATOMS PER PATCH    40
Info: EMPTY PATCH LOAD       40 ATOMS
Info: INITIAL TEMPERATURE    300
Info: CENTER OF MASS MOVING INITIALLY? NO
Info: DIELECTRIC             1
Info: EXCLUDE                SCALED ONE-FOUR
Info: 1-4 ELECTROSTATICS SCALED BY 0.833333
Info: MODIFIED 1-4 VDW PARAMETERS WILL BE USED
Info: DCD FILENAME           mobley_1708457_equil.dcd
Info: DCD FREQUENCY          100000
Info: DCD FIRST STEP         100000
Info: DCD FILE WILL CONTAIN UNIT CELL DATA
Info: XST FILENAME           mobley_1708457_equil.xst
Info: XST FREQUENCY          100000
Info: NO VELOCITY DCD OUTPUT
Info: NO FORCE DCD OUTPUT
Info: OUTPUT FILENAME        mobley_1708457_equil
Info: BINARY OUTPUT FILES WILL BE USED
Info: RESTART FILENAME       mobley_1708457_equil.restart
Info: RESTART FREQUENCY      100000
Info: BINARY RESTART FILES WILL BE USED
Info: CUTOFF                 9
Info: PAIRLIST DISTANCE      11
Info: PAIRLIST SHRINK RATE   0.01
Info: PAIRLIST GROW RATE     0.01
Info: PAIRLIST TRIGGER       0.3
Info: PAIRLISTS PER CYCLE    2
Info: PAIRLISTS ENABLED
Info: MARGIN                 8
Info: HYDROGEN GROUP CUTOFF  2.5
Info: PATCH DIMENSION        21.5
Info: ENERGY OUTPUT STEPS    100000
Info: ENERGY EVALUATION STEPS    100000
Info: OUTPUT ENERGY PRECISION 4
Info: CROSSTERM ENERGY INCLUDED IN DIHEDRAL
Info: TIMING OUTPUT STEPS    1000000
Info: PRESSURE OUTPUT STEPS  100000
Info: FIXED ATOMS ACTIVE
Info: LANGEVIN DYNAMICS ACTIVE
Info: LANGEVIN TEMPERATURE   30
Info: LANGEVIN USING BBK INTEGRATOR
Info: LANGEVIN DAMPING COEFFICIENT IS 1 INVERSE PS
Info: LANGEVIN DYNAMICS APPLIED TO HYDROGENS
Info: LANGEVIN PISTON PRESSURE CONTROL ACTIVE
Info:        TARGET PRESSURE IS 1.01325 BAR
Info:     OSCILLATION PERIOD IS 50 FS
Info:             DECAY TIME IS 25 FS
Info:     PISTON TEMPERATURE IS 300 K
Info:       PRESSURE CONTROL IS GROUP-BASED
Info:    INITIAL STRAIN RATE IS 0 0 0
Info:       CELL FLUCTUATION IS ISOTROPIC
Info: PARTICLE MESH EWALD (PME) ACTIVE
Info: PME TOLERANCE               1e-06
Info: PME EWALD COEFFICIENT       0.348832
Info: PME INTERPOLATION ORDER     4
Info: PME GRID DIMENSIONS         40 36 36
Info: PME MAXIMUM GRID SPACING    1
Info: FULL ELECTROSTATIC EVALUATION FREQUENCY      2
Info: USING VERLET I (r-RESPA) MTS SCHEME.
Info: C1 SPLITTING OF LONG RANGE ELECTROSTATICS
Info: PLACING ATOMS IN PATCHES BY HYDROGEN GROUPS
Info: RIGID BONDS TO HYDROGEN : ALL
Info:         ERROR TOLERANCE : 1e-08
Info:          MAX ITERATIONS : 100
Info: RIGID WATER USING SETTLE ALGORITHM
Info: RANDOM NUMBER SEED     1743675176
Info: USE HYDROGEN BONDS?    NO
Info: Using AMBER format force field!
Info: AMBER PARM FILE        mobley_1708457.prmtop
Info: COORDINATE PDB         mobley_1708457.pdb
Info: Exclusions will be read from PARM file!
Info: SCNB (VDW SCALING)     2
Info: USING ARITHMETIC MEAN TO COMBINE L-J SIGMA PARAMETERS
Info: BINARY COORDINATES     mobley_1708457_min.coor
Info: SUMMARY OF PARAMETERS:
Info: 5 BONDS
Info: 5 ANGLES
Info:   5 HARMONIC
Info:   0 COSINE-BASED
Info: 1 DIHEDRAL
Info: 0 IMPROPER
Info: 0 CROSSTERM
Info: 0 VDW
Info: 21 VDW_PAIRS
Info: 0 NBTHOLE_PAIRS
Info: STRUCTURE SUMMARY:
Info: 2987 ATOMS
Info: 2986 BONDS
Info: 18 ANGLES
Info: 18 DIHEDRALS
Info: 0 IMPROPERS
Info: 0 CROSSTERMS
Info: 3022 EXCLUSIONS
Info: 11 FIXED ATOMS
Info: 2982 RIGID BONDS
Info: 6 RIGID BONDS BETWEEN FIXED ATOMS
Info: 5952 DEGREES OF FREEDOM
Info: 997 HYDROGEN GROUPS
Info: 4 ATOMS IN LARGEST HYDROGEN GROUP
Info: 997 MIGRATION GROUPS
Info: 4 ATOMS IN LARGEST MIGRATION GROUP
Info: 5 HYDROGEN GROUPS WITH ALL ATOMS FIXED
Info: TOTAL MASS = 17966 amu
Info: TOTAL CHARGE = -0.000100002 e
Info: MASS DENSITY = 0.670059 g/cm^3
Info: ATOM DENSITY = 0.0670869 atoms/A^3
Info: ADDED 0 IMPLICIT EXCLUSIONS
Info: NONBONDED TABLE R-SQUARED SPACING: 0.0625
Info: NONBONDED TABLE SIZE: 705 POINTS
Info: REMOVING COM VELOCITY -0.0913119 0.161362 0.167389
TCL: Running for 100000 steps
ETITLE: TS BOND ANGLE DIHED IMPRP ELECT VDW BOUNDARY MISC KINETIC TOTAL TEMP POTENTIAL TOTAL3 TEMPAVG PRESSURE GPRESSURE VOLUME PRESSAVG GPRESSAVG
ENERGY: 0 0.0000 0.0000 0.0000 0.0000 -14019.5596 2404.1180 0.0000 0.0000 1793.4544 -9821.9871 303.2619 -11615.4415 -9821.6306 303.2619 221.5366 250.0780 44524.3464 221.5366 250.0780
ENERGY: 100000 0.0000 0.0000 0.0000 0.0000 -14656.0132 2557.9478 0.0000 0.0000 181.6164 -11916.4490 30.7102 -12098.0654 -11916.0463 30.8714 477.1146 536.9303 29245.3833 4.8065 4.7723
TCL: Running 100000 steps at 60 kelvin.
TCL: Setting parameter langevinTemp to 60
TCL: Running for 100000 steps
ETITLE: TS BOND ANGLE DIHED IMPRP ELECT VDW BOUNDARY MISC KINETIC TOTAL TEMP POTENTIAL TOTAL3 TEMPAVG PRESSURE GPRESSURE VOLUME PRESSAVG GPRESSAVG
ENERGY: 100000 0.0000 0.0000 0.0000 0.0000 -14656.0132 2557.9478 0.0000 0.0000 181.5282 -11916.5373 30.6953 -12098.0654 -11916.1202 30.6953 496.8451 536.8797 29245.3833 496.8451 536.8797
ENERGY: 200000 0.0000 0.0000 0.0000 0.0000 -14415.6230 2393.8826 0.0000 0.0000 362.3211 -11659.4193 61.2662 -12021.7404 -11658.1165 59.8831 -545.3613 -484.0161 29363.2108 5.3756 5.3932
TCL: Running 100000 steps at 90 kelvin.
TCL: Setting parameter langevinTemp to 90
TCL: Running for 100000 steps
ETITLE: TS BOND ANGLE DIHED IMPRP ELECT VDW BOUNDARY MISC KINETIC TOTAL TEMP POTENTIAL TOTAL3 TEMPAVG PRESSURE GPRESSURE VOLUME PRESSAVG GPRESSAVG
ENERGY: 200000 0.0000 0.0000 0.0000 0.0000 -14415.6230 2393.8826 0.0000 0.0000 362.1401 -11659.6003 61.2356 -12021.7404 -11658.8839 61.2356 -541.9675 -483.6760 29363.2108 -541.9675 -483.6760
ENERGY: 300000 0.0000 0.0000 0.0000 0.0000 -14334.3239 2393.5112 0.0000 0.0000 503.2812 -11437.5315 85.1017 -11940.8127 -11436.9990 89.9138 -340.6157 -283.8970 29250.6563 5.2754 5.2721
TCL: Running 100000 steps at 120 kelvin.
TCL: Setting parameter langevinTemp to 120
TCL: Running for 100000 steps
ETITLE: TS BOND ANGLE DIHED IMPRP ELECT VDW BOUNDARY MISC KINETIC TOTAL TEMP POTENTIAL TOTAL3 TEMPAVG PRESSURE GPRESSURE VOLUME PRESSAVG GPRESSAVG
ENERGY: 300000 0.0000 0.0000 0.0000 0.0000 -14334.3239 2393.5112 0.0000 0.0000 503.0282 -11437.7845 85.0589 -11940.8127 -11436.5471 85.0589 -340.3487 -284.6398 29250.6563 -340.3487 -284.6398
ENERGY: 400000 0.0000 0.0000 0.0000 0.0000 -14081.1913 2307.3834 0.0000 0.0000 687.2758 -11086.5320 116.2140 -11773.8078 -11085.6207 119.8902 -542.8133 -495.9070 29534.8469 3.8908 3.7860
TCL: Running 100000 steps at 150 kelvin.
TCL: Setting parameter langevinTemp to 150
TCL: Running for 100000 steps
ETITLE: TS BOND ANGLE DIHED IMPRP ELECT VDW BOUNDARY MISC KINETIC TOTAL TEMP POTENTIAL TOTAL3 TEMPAVG PRESSURE GPRESSURE VOLUME PRESSAVG GPRESSAVG
ENERGY: 400000 0.0000 0.0000 0.0000 0.0000 -14081.1913 2307.3834 0.0000 0.0000 686.9282 -11086.8796 116.1552 -11773.8078 -11085.6293 116.1552 -545.1943 -496.5085 29534.8469 -545.1943 -496.5085
ENERGY: 500000 0.0000 0.0000 0.0000 0.0000 -14057.1359 2460.0265 0.0000 0.0000 878.3398 -10718.7696 148.5217 -11597.1094 -10717.3279 149.7215 1492.5973 1511.8996 29123.6737 3.9233 3.8002
TCL: Running 100000 steps at 180 kelvin.
TCL: Setting parameter langevinTemp to 180
TCL: Running for 100000 steps
ETITLE: TS BOND ANGLE DIHED IMPRP ELECT VDW BOUNDARY MISC KINETIC TOTAL TEMP POTENTIAL TOTAL3 TEMPAVG PRESSURE GPRESSURE VOLUME PRESSAVG GPRESSAVG
ENERGY: 500000 0.0000 0.0000 0.0000 0.0000 -14057.1359 2460.0265 0.0000 0.0000 877.8864 -10719.2230 148.4451 -11597.1094 -10718.2759 148.4451 1462.6494 1511.6860 29123.6737 1462.6494 1511.6860
ENERGY: 600000 0.0000 0.0000 0.0000 0.0000 -13295.0139 1970.5388 0.0000 0.0000 1062.0968 -10262.3783 179.5939 -11324.4751 -10260.0491 179.8652 -1569.8472 -1453.5591 29643.7580 3.8194 3.8053
TCL: Running 100000 steps at 210 kelvin.
TCL: Setting parameter langevinTemp to 210
TCL: Running for 100000 steps
ETITLE: TS BOND ANGLE DIHED IMPRP ELECT VDW BOUNDARY MISC KINETIC TOTAL TEMP POTENTIAL TOTAL3 TEMPAVG PRESSURE GPRESSURE VOLUME PRESSAVG GPRESSAVG
ENERGY: 600000 0.0000 0.0000 0.0000 0.0000 -13295.0139 1970.5388 0.0000 0.0000 1061.5587 -10262.9164 179.5029 -11324.4751 -10260.8368 179.5029 -1526.8191 -1453.3292 29643.7580 -1526.8191 -1453.3292
ENERGY: 700000 0.0000 0.0000 0.0000 0.0000 -12664.9741 1860.3883 0.0000 0.0000 1242.1388 -9562.4471 210.0379 -10804.5858 -9559.3905 209.6792 -200.8875 -102.4465 28921.5512 4.1092 3.9933
TCL: Running 100000 steps at 240 kelvin.
TCL: Setting parameter langevinTemp to 240
TCL: Running for 100000 steps
ETITLE: TS BOND ANGLE DIHED IMPRP ELECT VDW BOUNDARY MISC KINETIC TOTAL TEMP POTENTIAL TOTAL3 TEMPAVG PRESSURE GPRESSURE VOLUME PRESSAVG GPRESSAVG
ENERGY: 700000 0.0000 0.0000 0.0000 0.0000 -12664.9741 1860.3883 0.0000 0.0000 1241.5046 -9563.0812 209.9306 -10804.5858 -9561.0631 209.9306 -158.2728 -100.4487 28921.5512 -158.2728 -100.4487
ENERGY: 800000 0.0000 0.0000 0.0000 0.0000 -12116.4368 1678.3665 0.0000 0.0000 1367.6554 -9070.4148 231.2619 -10438.0702 -9068.1921 239.8565 -752.7915 -647.5018 29603.7103 2.0210 2.2849
TCL: Running 100000 steps at 270 kelvin.
TCL: Setting parameter langevinTemp to 270
TCL: Running for 100000 steps
ETITLE: TS BOND ANGLE DIHED IMPRP ELECT VDW BOUNDARY MISC KINETIC TOTAL TEMP POTENTIAL TOTAL3 TEMPAVG PRESSURE GPRESSURE VOLUME PRESSAVG GPRESSAVG
ENERGY: 800000 0.0000 0.0000 0.0000 0.0000 -12116.4368 1678.3665 0.0000 0.0000 1366.9749 -9071.0953 231.1469 -10438.0702 -9068.1996 231.1469 -740.9276 -650.9324 29603.7103 -740.9276 -650.9324
ENERGY: 900000 0.0000 0.0000 0.0000 0.0000 -11709.4885 1704.0223 0.0000 0.0000 1526.8845 -8478.5817 258.1866 -10005.4662 -8475.2619 269.8647 753.8551 858.2419 29784.8937 3.1515 3.2197
TCL: Running 1000000 steps at 300 kelvin.
TCL: Setting parameter langevinTemp to 300
TCL: Running for 1000000 steps
ETITLE: TS BOND ANGLE DIHED IMPRP ELECT VDW BOUNDARY MISC KINETIC TOTAL TEMP POTENTIAL TOTAL3 TEMPAVG PRESSURE GPRESSURE VOLUME PRESSAVG GPRESSAVG
ENERGY: 900000 0.0000 0.0000 0.0000 0.0000 -11709.4885 1704.0223 0.0000 0.0000 1526.0813 -8479.3849 258.0508 -10005.4662 -8477.8163 258.0508 784.2712 858.8343 29784.8937 784.2712 858.8343
ENERGY: 1100000 0.0000 0.0000 0.0000 0.0000 -11000.7591 1363.5237 0.0000 0.0000 1730.1098 -7907.1256 292.5507 -9637.2354 -7902.4648 300.5475 -998.7895 -922.5534 31024.8542 2.9454 2.9696
ENERGY: 1300000 0.0000 0.0000 0.0000 0.0000 -11025.4554 1416.2041 0.0000 0.0000 1785.1319 -7824.1195 301.8546 -9609.2514 -7820.0737 300.0667 -544.9835 -464.5288 31087.8543 3.8828 3.7699
ENERGY: 1500000 0.0000 0.0000 0.0000 0.0000 -11161.3880 1508.9944 0.0000 0.0000 1769.0756 -7883.3179 299.1396 -9652.3936 -7877.9795 300.3207 409.5283 441.1435 30325.0795 1.7133 1.8209
ENERGY: 1700000 0.0000 0.0000 0.0000 0.0000 -10876.8825 1384.4205 0.0000 0.0000 1787.2413 -7705.2207 302.2113 -9492.4620 -7704.0935 300.5116 -371.4230 -332.3938 30961.3696 3.6991 3.6371
ENERGY: 1900000 0.0000 0.0000 0.0000 0.0000 -11199.8641 1532.4411 0.0000 0.0000 1775.2129 -7892.2101 300.1773 -9667.4230 -7887.9936 299.8508 650.5286 702.5525 30190.2966 4.1603 4.2488
TCL: Exiting due to exit command.
