Info: SIMULATION PARAMETERS:
Info: TIMESTEP               2
Info: NUMBER OF STEPS        0
Info: STEPS PER CYCLE        10
Info: PERIODIC CELL BASIS 1  36.592 0 0
Info: PERIODIC CELL BASIS 2  0 36.611 0
Info: PERIODIC CELL BASIS 3  0 0 33.27
Info: PERIODIC CELL CENTER   0 0 0
Info: WRAPPING WATERS AROUND PERIODIC BOUNDARIES ON OUTPUT.
Info: WRAPPING ALL CLUSTERS AROUND PERIODIC BOUNDARIES ON OUTPUT.
Info: FIRST LDB TIMESTEP     50
Info: LAST LDB TIMESTEP     -1
Info: HOM BACKGROUND SCALING 1
Info: PME BACKGROUND SCALING 1
Info: MIN ATOMS PER PATCH    40
Info: EMPTY PATCH LOAD       40 ATOMS
Info: INITIAL TEMPERATURE    300
Info: CENTER OF MASS MOVING INITIALLY? NO
Info: DIELECTRIC             1
Info: EXCLUDE                SCALED ONE-FOUR
Info: 1-4 ELECTROSTATICS SCALED BY 0.833333
Info: MODIFIED 1-4 VDW PARAMETERS WILL BE USED
Info: DCD FILENAME           mobley_296847_equil.dcd
Info: DCD FREQUENCY          100000
Info: DCD FIRST STEP         100000
Info: DCD FILE WILL CONTAIN UNIT CELL DATA
Info: XST FILENAME           mobley_296847_equil.xst
Info: XST FREQUENCY          100000
Info: NO VELOCITY DCD OUTPUT
Info: NO FORCE DCD OUTPUT
Info: OUTPUT FILENAME        mobley_296847_equil
Info: BINARY OUTPUT FILES WILL BE USED
Info: RESTART FILENAME       mobley_296847_equil.restart
Info: RESTART FREQUENCY      100000
Info: BINARY RESTART FILES WILL BE USED
Info: CUTOFF                 9
Info: PAIRLIST DISTANCE      11
Info: PAIRLIST SHRINK RATE   0.01
Info: PAIRLIST GROW RATE     0.01
Info: PAIRLIST TRIGGER       0.3
Info: PAIRLISTS PER CYCLE    2
Info: PAIRLISTS ENABLED
Info: MARGIN                 8
Info: HYDROGEN GROUP CUTOFF  2.5
Info: PATCH DIMENSION        21.5
Info: ENERGY OUTPUT STEPS    100000
Info: ENERGY EVALUATION STEPS    100000
Info: OUTPUT ENERGY PRECISION 4
Info: CROSSTERM ENERGY INCLUDED IN DIHEDRAL
Info: TIMING OUTPUT STEPS    1000000
Info: PRESSURE OUTPUT STEPS  100000
Info: FIXED ATOMS ACTIVE
Info: LANGEVIN DYNAMICS ACTIVE
Info: LANGEVIN TEMPERATURE   30
Info: LANGEVIN USING BBK INTEGRATOR
Info: LANGEVIN DAMPING COEFFICIENT IS 1 INVERSE PS
Info: LANGEVIN DYNAMICS APPLIED TO HYDROGENS
Info: LANGEVIN PISTON PRESSURE CONTROL ACTIVE
Info:        TARGET PRESSURE IS 1.01325 BAR
Info:     OSCILLATION PERIOD IS 50 FS
Info:             DECAY TIME IS 25 FS
Info:     PISTON TEMPERATURE IS 300 K
Info:       PRESSURE CONTROL IS GROUP-BASED
Info:    INITIAL STRAIN RATE IS 0 0 0
Info:       CELL FLUCTUATION IS ISOTROPIC
Info: PARTICLE MESH EWALD (PME) ACTIVE
Info: PME TOLERANCE               1e-06
Info: PME EWALD COEFFICIENT       0.348832
Info: PME INTERPOLATION ORDER     4
Info: PME GRID DIMENSIONS         40 40 36
Info: PME MAXIMUM GRID SPACING    1
Info: FULL ELECTROSTATIC EVALUATION FREQUENCY      2
Info: USING VERLET I (r-RESPA) MTS SCHEME.
Info: C1 SPLITTING OF LONG RANGE ELECTROSTATICS
Info: PLACING ATOMS IN PATCHES BY HYDROGEN GROUPS
Info: RIGID BONDS TO HYDROGEN : ALL
Info:         ERROR TOLERANCE : 1e-08
Info:          MAX ITERATIONS : 100
Info: RIGID WATER USING SETTLE ALGORITHM
Info: RANDOM NUMBER SEED     1743686300
Info: USE HYDROGEN BONDS?    NO
Info: Using AMBER format force field!
Info: AMBER PARM FILE        mobley_296847.prmtop
Info: COORDINATE PDB         mobley_296847.pdb
Info: Exclusions will be read from PARM file!
Info: SCNB (VDW SCALING)     2
Info: USING ARITHMETIC MEAN TO COMBINE L-J SIGMA PARAMETERS
Info: BINARY COORDINATES     mobley_296847_min.coor
Info: SUMMARY OF PARAMETERS:
Info: 6 BONDS
Info: 6 ANGLES
Info:   6 HARMONIC
Info:   0 COSINE-BASED
Info: 3 DIHEDRAL
Info: 0 IMPROPER
Info: 0 CROSSTERM
Info: 0 VDW
Info: 21 VDW_PAIRS
Info: 0 NBTHOLE_PAIRS
Info: STRUCTURE SUMMARY:
Info: 2957 ATOMS
Info: 2957 BONDS
Info: 16 ANGLES
Info: 25 DIHEDRALS
Info: 0 IMPROPERS
Info: 0 CROSSTERMS
Info: 2990 EXCLUSIONS
Info: 11 FIXED ATOMS
Info: 2951 RIGID BONDS
Info: 5 RIGID BONDS BETWEEN FIXED ATOMS
Info: 5892 DEGREES OF FREEDOM
Info: 988 HYDROGEN GROUPS
Info: 3 ATOMS IN LARGEST HYDROGEN GROUP
Info: 988 MIGRATION GROUPS
Info: 3 ATOMS IN LARGEST MIGRATION GROUP
Info: 6 HYDROGEN GROUPS WITH ALL ATOMS FIXED
Info: TOTAL MASS = 17770.8 amu
Info: TOTAL CHARGE = -0.000199944 e
Info: MASS DENSITY = 0.662088 g/cm^3
Info: ATOM DENSITY = 0.0663439 atoms/A^3
Info: ADDED 0 IMPLICIT EXCLUSIONS
Info: NONBONDED TABLE R-SQUARED SPACING: 0.0625
Info: NONBONDED TABLE SIZE: 705 POINTS
Info: REMOVING COM VELOCITY 0.0627108 -0.201883 0.106747
TCL: Running for 100000 steps
ETITLE: TS BOND ANGLE DIHED IMPRP ELECT VDW BOUNDARY MISC KINETIC TOTAL TEMP POTENTIAL TOTAL3 TEMPAVG PRESSURE GPRESSURE VOLUME PRESSAVG GPRESSAVG
ENERGY: 0 0.0000 0.0000 0.0000 0.0000 -13699.0085 2390.6345 0.0000 0.0000 1803.4942 -9504.8798 308.0650 -11308.3740 -9504.5063 308.0650 434.6365 462.2859 44570.8113 434.6365 462.2859
ENERGY: 100000 0.0000 0.0000 0.0000 0.0000 -14335.9765 2468.0796 0.0000 0.0000 178.6874 -11689.2096 30.5226 -11867.8969 -11688.5864 30.9112 127.8659 241.1575 28060.7786 4.0852 4.0325
TCL: Running 100000 steps at 60 kelvin.
TCL: Setting parameter langevinTemp to 60
TCL: Running for 100000 steps
ETITLE: TS BOND ANGLE DIHED IMPRP ELECT VDW BOUNDARY MISC KINETIC TOTAL TEMP POTENTIAL TOTAL3 TEMPAVG PRESSURE GPRESSURE VOLUME PRESSAVG GPRESSAVG
ENERGY: 100000 0.0000 0.0000 0.0000 0.0000 -14335.9765 2468.0796 0.0000 0.0000 178.6039 -11689.2930 30.5083 -11867.8969 -11688.9270 30.5083 156.1113 241.5428 28060.7786 156.1113 241.5428
ENERGY: 200000 0.0000 0.0000 0.0000 0.0000 -14213.7058 2410.7142 0.0000 0.0000 341.6123 -11461.3793 58.3527 -11802.9916 -11460.3959 59.8046 -46.5066 -5.6700 28029.0087 4.5976 4.6253
TCL: Running 100000 steps at 90 kelvin.
TCL: Setting parameter langevinTemp to 90
TCL: Running for 100000 steps
ETITLE: TS BOND ANGLE DIHED IMPRP ELECT VDW BOUNDARY MISC KINETIC TOTAL TEMP POTENTIAL TOTAL3 TEMPAVG PRESSURE GPRESSURE VOLUME PRESSAVG GPRESSAVG
ENERGY: 200000 0.0000 0.0000 0.0000 0.0000 -14213.7058 2410.7142 0.0000 0.0000 341.4399 -11461.5518 58.3233 -11802.9916 -11460.9945 58.3233 -61.8955 -5.6438 28029.0087 -61.8955 -5.6438
ENERGY: 300000 0.0000 0.0000 0.0000 0.0000 -13995.3014 2295.4990 0.0000 0.0000 524.8298 -11174.9726 89.6491 -11699.8025 -11172.5441 89.8356 -688.2763 -630.4092 28316.7999 4.0263 4.0632
TCL: Running 100000 steps at 120 kelvin.
TCL: Setting parameter langevinTemp to 120
TCL: Running for 100000 steps
ETITLE: TS BOND ANGLE DIHED IMPRP ELECT VDW BOUNDARY MISC KINETIC TOTAL TEMP POTENTIAL TOTAL3 TEMPAVG PRESSURE GPRESSURE VOLUME PRESSAVG GPRESSAVG
ENERGY: 300000 0.0000 0.0000 0.0000 0.0000 -13995.3014 2295.4990 0.0000 0.0000 524.5673 -11175.2352 89.6043 -11699.8025 -11174.0346 89.6043 -680.1272 -629.3136 28316.7999 -680.1272 -629.3136
ENERGY: 400000 0.0000 0.0000 0.0000 0.0000 -13909.8165 2327.3316 0.0000 0.0000 714.8999 -10867.5850 122.1161 -11582.4849 -10866.1989 120.0644 -313.8347 -264.7607 28788.6497 5.4194 5.4874
TCL: Running 100000 steps at 150 kelvin.
TCL: Setting parameter langevinTemp to 150
TCL: Running for 100000 steps
ETITLE: TS BOND ANGLE DIHED IMPRP ELECT VDW BOUNDARY MISC KINETIC TOTAL TEMP POTENTIAL TOTAL3 TEMPAVG PRESSURE GPRESSURE VOLUME PRESSAVG GPRESSAVG
ENERGY: 400000 0.0000 0.0000 0.0000 0.0000 -13909.8165 2327.3316 0.0000 0.0000 714.5497 -10867.9352 122.0563 -11582.4849 -10866.3984 122.0563 -317.0882 -265.3478 28788.6497 -317.0882 -265.3478
ENERGY: 500000 0.0000 0.0000 0.0000 0.0000 -13813.2014 2408.4330 0.0000 0.0000 877.6896 -10527.0788 149.9231 -11404.7684 -10524.8670 150.1370 1123.7828 1190.7017 28730.1486 4.1837 4.2197
TCL: Running 100000 steps at 180 kelvin.
TCL: Setting parameter langevinTemp to 180
TCL: Running for 100000 steps
ETITLE: TS BOND ANGLE DIHED IMPRP ELECT VDW BOUNDARY MISC KINETIC TOTAL TEMP POTENTIAL TOTAL3 TEMPAVG PRESSURE GPRESSURE VOLUME PRESSAVG GPRESSAVG
ENERGY: 500000 0.0000 0.0000 0.0000 0.0000 -13813.2014 2408.4330 0.0000 0.0000 877.2470 -10527.5214 149.8475 -11404.7684 -10525.8788 149.8475 1128.4672 1190.0918 28730.1486 1128.4672 1190.0918
ENERGY: 600000 0.0000 0.0000 0.0000 0.0000 -13060.1420 1994.4849 0.0000 0.0000 1055.2803 -10010.3768 180.2584 -11065.6571 -10008.1047 180.1125 -1412.2174 -1331.0404 29611.2208 4.3170 4.3994
TCL: Running 100000 steps at 210 kelvin.
TCL: Setting parameter langevinTemp to 210
TCL: Running for 100000 steps
ETITLE: TS BOND ANGLE DIHED IMPRP ELECT VDW BOUNDARY MISC KINETIC TOTAL TEMP POTENTIAL TOTAL3 TEMPAVG PRESSURE GPRESSURE VOLUME PRESSAVG GPRESSAVG
ENERGY: 600000 0.0000 0.0000 0.0000 0.0000 -13060.1420 1994.4849 0.0000 0.0000 1054.7421 -10010.9150 180.1664 -11065.6571 -10008.8350 180.1664 -1408.9839 -1331.5377 29611.2208 -1408.9839 -1331.5377
ENERGY: 700000 0.0000 0.0000 0.0000 0.0000 -12497.7798 1880.7157 0.0000 0.0000 1211.9307 -9405.1335 207.0167 -10617.0642 -9401.8685 210.4326 -352.0393 -263.8657 29104.4725 3.6792 3.6503
TCL: Running 100000 steps at 240 kelvin.
TCL: Setting parameter langevinTemp to 240
TCL: Running for 100000 steps
ETITLE: TS BOND ANGLE DIHED IMPRP ELECT VDW BOUNDARY MISC KINETIC TOTAL TEMP POTENTIAL TOTAL3 TEMPAVG PRESSURE GPRESSURE VOLUME PRESSAVG GPRESSAVG
ENERGY: 700000 0.0000 0.0000 0.0000 0.0000 -12497.7798 1880.7157 0.0000 0.0000 1211.3245 -9405.7397 206.9132 -10617.0642 -9403.1256 206.9132 -327.6120 -262.7638 29104.4725 -327.6120 -262.7638
ENERGY: 800000 0.0000 0.0000 0.0000 0.0000 -11795.3323 1680.8164 0.0000 0.0000 1426.5253 -8687.9905 243.6728 -10114.5158 -8686.0482 239.9189 -371.4509 -293.0541 29424.0181 2.8826 3.0325
TCL: Running 100000 steps at 270 kelvin.
TCL: Setting parameter langevinTemp to 270
TCL: Running for 100000 steps
ETITLE: TS BOND ANGLE DIHED IMPRP ELECT VDW BOUNDARY MISC KINETIC TOTAL TEMP POTENTIAL TOTAL3 TEMPAVG PRESSURE GPRESSURE VOLUME PRESSAVG GPRESSAVG
ENERGY: 800000 0.0000 0.0000 0.0000 0.0000 -11795.3323 1680.8164 0.0000 0.0000 1425.8200 -8688.6959 243.5524 -10114.5158 -8686.6461 243.5524 -375.4797 -293.3081 29424.0181 -375.4797 -293.3081
ENERGY: 900000 0.0000 0.0000 0.0000 0.0000 -11377.0837 1637.2615 0.0000 0.0000 1602.7067 -8137.1155 273.7674 -9739.8222 -8134.3731 269.8101 686.8478 769.2676 29514.7593 3.4858 3.4730
TCL: Running 1000000 steps at 300 kelvin.
TCL: Setting parameter langevinTemp to 300
TCL: Running for 1000000 steps
ETITLE: TS BOND ANGLE DIHED IMPRP ELECT VDW BOUNDARY MISC KINETIC TOTAL TEMP POTENTIAL TOTAL3 TEMPAVG PRESSURE GPRESSURE VOLUME PRESSAVG GPRESSAVG
ENERGY: 900000 0.0000 0.0000 0.0000 0.0000 -11377.0837 1637.2615 0.0000 0.0000 1601.9124 -8137.9098 273.6317 -9739.8222 -8135.6968 273.6317 685.6833 769.7187 29514.7593 685.6833 769.7187
ENERGY: 1100000 0.0000 0.0000 0.0000 0.0000 -10875.5015 1474.0692 0.0000 0.0000 1716.1047 -7685.3276 293.1375 -9401.4323 -7680.8030 300.4587 41.0108 126.6406 30573.2511 3.4330 3.2212
ENERGY: 1300000 0.0000 0.0000 0.0000 0.0000 -10824.5616 1419.4965 0.0000 0.0000 1773.6724 -7631.3927 302.9710 -9405.0651 -7629.9775 300.0249 -427.5437 -347.4259 30591.2132 1.6574 1.7600
ENERGY: 1500000 0.0000 0.0000 0.0000 0.0000 -10604.9130 1369.4710 0.0000 0.0000 1772.3409 -7463.1011 302.7435 -9235.4420 -7458.2116 299.9604 -346.5738 -258.7917 30703.0554 2.5535 2.5104
ENERGY: 1700000 0.0000 0.0000 0.0000 0.0000 -10793.8837 1428.2313 0.0000 0.0000 1730.9756 -7634.6769 295.6777 -9365.6525 -7631.0185 300.2778 -290.6618 -192.7079 30582.8953 3.7416 3.5894
ENERGY: 1900000 0.0000 0.0000 0.0000 0.0000 -10889.3358 1463.9914 0.0000 0.0000 1752.4513 -7672.8930 299.3461 -9425.3443 -7669.7078 300.1940 52.5840 109.8869 30128.3230 3.1374 3.0790
TCL: Exiting due to exit command.
