Info: SIMULATION PARAMETERS:
Info: TIMESTEP               2
Info: NUMBER OF STEPS        0
Info: STEPS PER CYCLE        10
Info: PERIODIC CELL BASIS 1  35.01 0 0
Info: PERIODIC CELL BASIS 2  0 35.411 0
Info: PERIODIC CELL BASIS 3  0 0 35.723
Info: PERIODIC CELL CENTER   0 0 0
Info: WRAPPING WATERS AROUND PERIODIC BOUNDARIES ON OUTPUT.
Info: WRAPPING ALL CLUSTERS AROUND PERIODIC BOUNDARIES ON OUTPUT.
Info: FIRST LDB TIMESTEP     50
Info: LAST LDB TIMESTEP     -1
Info: HOM BACKGROUND SCALING 1
Info: PME BACKGROUND SCALING 1
Info: MIN ATOMS PER PATCH    40
Info: EMPTY PATCH LOAD       40 ATOMS
Info: INITIAL TEMPERATURE    300
Info: CENTER OF MASS MOVING INITIALLY? NO
Info: DIELECTRIC             1
Info: EXCLUDE                SCALED ONE-FOUR
Info: 1-4 ELECTROSTATICS SCALED BY 0.833333
Info: MODIFIED 1-4 VDW PARAMETERS WILL BE USED
Info: DCD FILENAME           mobley_676247_equil.dcd
Info: DCD FREQUENCY          100000
Info: DCD FIRST STEP         100000
Info: DCD FILE WILL CONTAIN UNIT CELL DATA
Info: XST FILENAME           mobley_676247_equil.xst
Info: XST FREQUENCY          100000
Info: NO VELOCITY DCD OUTPUT
Info: NO FORCE DCD OUTPUT
Info: OUTPUT FILENAME        mobley_676247_equil
Info: BINARY OUTPUT FILES WILL BE USED
Info: RESTART FILENAME       mobley_676247_equil.restart
Info: RESTART FREQUENCY      100000
Info: BINARY RESTART FILES WILL BE USED
Info: CUTOFF                 9
Info: PAIRLIST DISTANCE      11
Info: PAIRLIST SHRINK RATE   0.01
Info: PAIRLIST GROW RATE     0.01
Info: PAIRLIST TRIGGER       0.3
Info: PAIRLISTS PER CYCLE    2
Info: PAIRLISTS ENABLED
Info: MARGIN                 8
Info: HYDROGEN GROUP CUTOFF  2.5
Info: PATCH DIMENSION        21.5
Info: ENERGY OUTPUT STEPS    100000
Info: ENERGY EVALUATION STEPS    100000
Info: OUTPUT ENERGY PRECISION 4
Info: CROSSTERM ENERGY INCLUDED IN DIHEDRAL
Info: TIMING OUTPUT STEPS    1000000
Info: PRESSURE OUTPUT STEPS  100000
Info: FIXED ATOMS ACTIVE
Info: LANGEVIN DYNAMICS ACTIVE
Info: LANGEVIN TEMPERATURE   30
Info: LANGEVIN USING BBK INTEGRATOR
Info: LANGEVIN DAMPING COEFFICIENT IS 1 INVERSE PS
Info: LANGEVIN DYNAMICS APPLIED TO HYDROGENS
Info: LANGEVIN PISTON PRESSURE CONTROL ACTIVE
Info:        TARGET PRESSURE IS 1.01325 BAR
Info:     OSCILLATION PERIOD IS 50 FS
Info:             DECAY TIME IS 25 FS
Info:     PISTON TEMPERATURE IS 300 K
Info:       PRESSURE CONTROL IS GROUP-BASED
Info:    INITIAL STRAIN RATE IS 0 0 0
Info:       CELL FLUCTUATION IS ISOTROPIC
Info: PARTICLE MESH EWALD (PME) ACTIVE
Info: PME TOLERANCE               1e-06
Info: PME EWALD COEFFICIENT       0.348832
Info: PME INTERPOLATION ORDER     4
Info: PME GRID DIMENSIONS         36 36 36
Info: PME MAXIMUM GRID SPACING    1
Info: FULL ELECTROSTATIC EVALUATION FREQUENCY      2
Info: USING VERLET I (r-RESPA) MTS SCHEME.
Info: C1 SPLITTING OF LONG RANGE ELECTROSTATICS
Info: PLACING ATOMS IN PATCHES BY HYDROGEN GROUPS
Info: RIGID BONDS TO HYDROGEN : ALL
Info:         ERROR TOLERANCE : 1e-08
Info:          MAX ITERATIONS : 100
Info: RIGID WATER USING SETTLE ALGORITHM
Info: RANDOM NUMBER SEED     1743678662
Info: USE HYDROGEN BONDS?    NO
Info: Using AMBER format force field!
Info: AMBER PARM FILE        mobley_676247.prmtop
Info: COORDINATE PDB         mobley_676247.pdb
Info: Exclusions will be read from PARM file!
Info: SCNB (VDW SCALING)     2
Info: USING ARITHMETIC MEAN TO COMBINE L-J SIGMA PARAMETERS
Info: BINARY COORDINATES     mobley_676247_min.coor
Info: SUMMARY OF PARAMETERS:
Info: 3 BONDS
Info: 1 ANGLES
Info:   1 HARMONIC
Info:   0 COSINE-BASED
Info: 0 DIHEDRAL
Info: 0 IMPROPER
Info: 0 CROSSTERM
Info: 0 VDW
Info: 10 VDW_PAIRS
Info: 0 NBTHOLE_PAIRS
Info: STRUCTURE SUMMARY:
Info: 2999 ATOMS
Info: 2998 BONDS
Info: 6 ANGLES
Info: 0 DIHEDRALS
Info: 0 IMPROPERS
Info: 0 CROSSTERMS
Info: 3004 EXCLUSIONS
Info: 5 FIXED ATOMS
Info: 2994 RIGID BONDS
Info: 0 RIGID BONDS BETWEEN FIXED ATOMS
Info: 5988 DEGREES OF FREEDOM
Info: 1003 HYDROGEN GROUPS
Info: 3 ATOMS IN LARGEST HYDROGEN GROUP
Info: 1003 MIGRATION GROUPS
Info: 3 ATOMS IN LARGEST MIGRATION GROUP
Info: 5 HYDROGEN GROUPS WITH ALL ATOMS FIXED
Info: TOTAL MASS = 18068 amu
Info: TOTAL CHARGE = 0.000200033 e
Info: MASS DENSITY = 0.677471 g/cm^3
Info: ATOM DENSITY = 0.0677171 atoms/A^3
Info: ADDED 0 IMPLICIT EXCLUSIONS
Info: NONBONDED TABLE R-SQUARED SPACING: 0.0625
Info: NONBONDED TABLE SIZE: 705 POINTS
Info: REMOVING COM VELOCITY 0.167384 0.0325857 -0.0958345
TCL: Running for 100000 steps
ETITLE: TS BOND ANGLE DIHED IMPRP ELECT VDW BOUNDARY MISC KINETIC TOTAL TEMP POTENTIAL TOTAL3 TEMPAVG PRESSURE GPRESSURE VOLUME PRESSAVG GPRESSAVG
ENERGY: 0 0.0000 0.0000 0.0000 0.0000 -14014.8427 2481.1726 0.0000 0.0000 1758.3853 -9775.2848 295.5443 -11533.6702 -9774.9382 295.5443 549.6435 586.1721 44287.2002 549.6435 586.1721
ENERGY: 100000 0.0000 0.0000 0.0000 0.0000 -14474.4512 2442.6696 0.0000 0.0000 179.9191 -11851.8625 30.2403 -12031.7816 -11851.2415 30.8628 -659.1043 -585.6526 29290.7360 5.1142 5.0375
TCL: Running 100000 steps at 60 kelvin.
TCL: Setting parameter langevinTemp to 60
TCL: Running for 100000 steps
ETITLE: TS BOND ANGLE DIHED IMPRP ELECT VDW BOUNDARY MISC KINETIC TOTAL TEMP POTENTIAL TOTAL3 TEMPAVG PRESSURE GPRESSURE VOLUME PRESSAVG GPRESSAVG
ENERGY: 100000 0.0000 0.0000 0.0000 0.0000 -14474.4512 2442.6696 0.0000 0.0000 179.8326 -11851.9491 30.2257 -12031.7816 -11851.5934 30.2257 -655.7225 -585.6565 29290.7360 -655.7225 -585.6565
ENERGY: 200000 0.0000 0.0000 0.0000 0.0000 -14434.6817 2483.7224 0.0000 0.0000 370.0301 -11580.9293 62.1936 -11950.9593 -11579.7421 59.8888 163.0471 226.3336 28945.4058 6.2722 6.3272
TCL: Running 100000 steps at 90 kelvin.
TCL: Setting parameter langevinTemp to 90
TCL: Running for 100000 steps
ETITLE: TS BOND ANGLE DIHED IMPRP ELECT VDW BOUNDARY MISC KINETIC TOTAL TEMP POTENTIAL TOTAL3 TEMPAVG PRESSURE GPRESSURE VOLUME PRESSAVG GPRESSAVG
ENERGY: 200000 0.0000 0.0000 0.0000 0.0000 -14434.6817 2483.7224 0.0000 0.0000 369.8532 -11581.1062 62.1639 -11950.9593 -11580.3968 62.1639 159.4663 226.5902 28945.4058 159.4663 226.5902
ENERGY: 300000 0.0000 0.0000 0.0000 0.0000 -14092.2109 2221.2910 0.0000 0.0000 542.7485 -11328.1714 91.2236 -11870.9199 -11326.2775 89.9513 -1838.4226 -1778.8457 29314.4094 4.4567 4.4924
TCL: Running 100000 steps at 120 kelvin.
TCL: Setting parameter langevinTemp to 120
TCL: Running for 100000 steps
ETITLE: TS BOND ANGLE DIHED IMPRP ELECT VDW BOUNDARY MISC KINETIC TOTAL TEMP POTENTIAL TOTAL3 TEMPAVG PRESSURE GPRESSURE VOLUME PRESSAVG GPRESSAVG
ENERGY: 300000 0.0000 0.0000 0.0000 0.0000 -14092.2109 2221.2910 0.0000 0.0000 542.4854 -11328.4345 91.1794 -11870.9199 -11327.0635 91.1794 -1825.9722 -1778.3598 29314.4094 -1825.9722 -1778.3598
ENERGY: 400000 0.0000 0.0000 0.0000 0.0000 -14059.9674 2321.6809 0.0000 0.0000 708.8222 -11029.4642 119.1368 -11738.2864 -11028.1884 120.1077 -547.0352 -473.9894 29208.4823 2.7210 2.6090
TCL: Running 100000 steps at 150 kelvin.
TCL: Setting parameter langevinTemp to 150
TCL: Running for 100000 steps
ETITLE: TS BOND ANGLE DIHED IMPRP ELECT VDW BOUNDARY MISC KINETIC TOTAL TEMP POTENTIAL TOTAL3 TEMPAVG PRESSURE GPRESSURE VOLUME PRESSAVG GPRESSAVG
ENERGY: 400000 0.0000 0.0000 0.0000 0.0000 -14059.9674 2321.6809 0.0000 0.0000 708.4765 -11029.8100 119.0787 -11738.2864 -11028.3724 119.0787 -523.6469 -474.2551 29208.4823 -523.6469 -474.2551
ENERGY: 500000 0.0000 0.0000 0.0000 0.0000 -13832.3724 2288.1362 0.0000 0.0000 893.3022 -10650.9340 150.1437 -11544.2362 -10648.3557 150.0835 -313.1689 -320.0702 29730.5391 1.9306 1.9072
TCL: Running 100000 steps at 180 kelvin.
TCL: Setting parameter langevinTemp to 180
TCL: Running for 100000 steps
ETITLE: TS BOND ANGLE DIHED IMPRP ELECT VDW BOUNDARY MISC KINETIC TOTAL TEMP POTENTIAL TOTAL3 TEMPAVG PRESSURE GPRESSURE VOLUME PRESSAVG GPRESSAVG
ENERGY: 500000 0.0000 0.0000 0.0000 0.0000 -13832.3724 2288.1362 0.0000 0.0000 892.8635 -10651.3727 150.0699 -11544.2362 -10649.6178 150.0699 -363.2428 -320.0412 29730.5391 -363.2428 -320.0412
ENERGY: 600000 0.0000 0.0000 0.0000 0.0000 -13350.8402 2147.9146 0.0000 0.0000 1104.0264 -10098.8991 185.5616 -11202.9256 -10096.6626 180.5071 -137.5551 -48.3237 29717.1814 4.4767 4.4790
TCL: Running 100000 steps at 210 kelvin.
TCL: Setting parameter langevinTemp to 210
TCL: Running for 100000 steps
ETITLE: TS BOND ANGLE DIHED IMPRP ELECT VDW BOUNDARY MISC KINETIC TOTAL TEMP POTENTIAL TOTAL3 TEMPAVG PRESSURE GPRESSURE VOLUME PRESSAVG GPRESSAVG
ENERGY: 600000 0.0000 0.0000 0.0000 0.0000 -13350.8402 2147.9146 0.0000 0.0000 1103.4907 -10099.4349 185.4715 -11202.9256 -10097.3944 185.4715 -119.7032 -47.8169 29717.1814 -119.7032 -47.8169
ENERGY: 700000 0.0000 0.0000 0.0000 0.0000 -12798.1020 2017.5054 0.0000 0.0000 1261.8954 -9518.7011 212.0957 -10780.5966 -9516.3769 209.7156 479.3921 530.7306 29468.3136 3.8529 3.8602
TCL: Running 100000 steps at 240 kelvin.
TCL: Setting parameter langevinTemp to 240
TCL: Running for 100000 steps
ETITLE: TS BOND ANGLE DIHED IMPRP ELECT VDW BOUNDARY MISC KINETIC TOTAL TEMP POTENTIAL TOTAL3 TEMPAVG PRESSURE GPRESSURE VOLUME PRESSAVG GPRESSAVG
ENERGY: 700000 0.0000 0.0000 0.0000 0.0000 -12798.1020 2017.5054 0.0000 0.0000 1261.2934 -9519.3032 211.9946 -10780.5966 -9517.3006 211.9946 447.9006 530.8099 29468.3136 447.9006 530.8099
ENERGY: 800000 0.0000 0.0000 0.0000 0.0000 -12055.9081 1754.8658 0.0000 0.0000 1430.0966 -8870.9457 240.3665 -10301.0423 -8867.3860 239.7219 -130.0955 -15.0737 29819.4422 2.5397 2.6459
TCL: Running 100000 steps at 270 kelvin.
TCL: Setting parameter langevinTemp to 270
TCL: Running for 100000 steps
ETITLE: TS BOND ANGLE DIHED IMPRP ELECT VDW BOUNDARY MISC KINETIC TOTAL TEMP POTENTIAL TOTAL3 TEMPAVG PRESSURE GPRESSURE VOLUME PRESSAVG GPRESSAVG
ENERGY: 800000 0.0000 0.0000 0.0000 0.0000 -12055.9081 1754.8658 0.0000 0.0000 1429.3715 -8871.6708 240.2446 -10301.0423 -8868.7205 240.2446 -90.9256 -17.1202 29819.4422 -90.9256 -17.1202
ENERGY: 900000 0.0000 0.0000 0.0000 0.0000 -11439.5822 1560.3583 0.0000 0.0000 1570.5701 -8308.6539 263.9769 -9879.2240 -8305.3470 270.1425 -489.3139 -370.5491 30363.6145 2.4371 2.3997
TCL: Running 1000000 steps at 300 kelvin.
TCL: Setting parameter langevinTemp to 300
TCL: Running for 1000000 steps
ETITLE: TS BOND ANGLE DIHED IMPRP ELECT VDW BOUNDARY MISC KINETIC TOTAL TEMP POTENTIAL TOTAL3 TEMPAVG PRESSURE GPRESSURE VOLUME PRESSAVG GPRESSAVG
ENERGY: 900000 0.0000 0.0000 0.0000 0.0000 -11439.5822 1560.3583 0.0000 0.0000 1569.7998 -8309.4242 263.8474 -9879.2240 -8307.4418 263.8474 -450.2057 -370.7487 30363.6145 -450.2057 -370.7487
ENERGY: 1100000 0.0000 0.0000 0.0000 0.0000 -10939.3028 1422.8743 0.0000 0.0000 1805.5470 -7710.8815 303.4711 -9516.4284 -7705.5053 300.3901 -354.0033 -245.4698 30720.9614 3.3852 3.3851
ENERGY: 1300000 0.0000 0.0000 0.0000 0.0000 -11012.5136 1468.8963 0.0000 0.0000 1724.5128 -7819.1044 289.8511 -9543.6172 -7813.3905 299.9954 -201.7106 -126.6413 31063.7683 4.6483 4.4439
ENERGY: 1500000 0.0000 0.0000 0.0000 0.0000 -10966.1485 1501.6851 0.0000 0.0000 1788.0726 -7676.3909 300.5341 -9464.4635 -7675.0145 300.2947 464.5801 600.1067 30676.5609 3.8692 3.9502
ENERGY: 1700000 0.0000 0.0000 0.0000 0.0000 -10949.5740 1426.7375 0.0000 0.0000 1787.6239 -7735.2126 300.4587 -9522.8365 -7735.3591 300.1549 -348.6942 -254.3643 30658.8070 2.9418 2.7593
ENERGY: 1900000 0.0000 0.0000 0.0000 0.0000 -10963.9455 1465.2296 0.0000 0.0000 1788.1591 -7710.5568 300.5486 -9498.7160 -7708.7213 300.2308 -9.3041 45.3716 30879.0974 3.1510 2.9540
TCL: Exiting due to exit command.
