Info: SIMULATION PARAMETERS:
Info: TIMESTEP               2
Info: NUMBER OF STEPS        0
Info: STEPS PER CYCLE        10
Info: PERIODIC CELL BASIS 1  37.435 0 0
Info: PERIODIC CELL BASIS 2  0 35.411 0
Info: PERIODIC CELL BASIS 3  0 0 31.349
Info: PERIODIC CELL CENTER   0 0 0
Info: WRAPPING WATERS AROUND PERIODIC BOUNDARIES ON OUTPUT.
Info: WRAPPING ALL CLUSTERS AROUND PERIODIC BOUNDARIES ON OUTPUT.
Info: FIRST LDB TIMESTEP     50
Info: LAST LDB TIMESTEP     -1
Info: HOM BACKGROUND SCALING 1
Info: PME BACKGROUND SCALING 1
Info: MIN ATOMS PER PATCH    40
Info: EMPTY PATCH LOAD       40 ATOMS
Info: INITIAL TEMPERATURE    300
Info: CENTER OF MASS MOVING INITIALLY? NO
Info: DIELECTRIC             1
Info: EXCLUDE                SCALED ONE-FOUR
Info: 1-4 ELECTROSTATICS SCALED BY 0.833333
Info: MODIFIED 1-4 VDW PARAMETERS WILL BE USED
Info: DCD FILENAME           mobley_7988076_equil.dcd
Info: DCD FREQUENCY          100000
Info: DCD FIRST STEP         100000
Info: DCD FILE WILL CONTAIN UNIT CELL DATA
Info: XST FILENAME           mobley_7988076_equil.xst
Info: XST FREQUENCY          100000
Info: NO VELOCITY DCD OUTPUT
Info: NO FORCE DCD OUTPUT
Info: OUTPUT FILENAME        mobley_7988076_equil
Info: BINARY OUTPUT FILES WILL BE USED
Info: RESTART FILENAME       mobley_7988076_equil.restart
Info: RESTART FREQUENCY      100000
Info: BINARY RESTART FILES WILL BE USED
Info: CUTOFF                 9
Info: PAIRLIST DISTANCE      11
Info: PAIRLIST SHRINK RATE   0.01
Info: PAIRLIST GROW RATE     0.01
Info: PAIRLIST TRIGGER       0.3
Info: PAIRLISTS PER CYCLE    2
Info: PAIRLISTS ENABLED
Info: MARGIN                 8
Info: HYDROGEN GROUP CUTOFF  2.5
Info: PATCH DIMENSION        21.5
Info: ENERGY OUTPUT STEPS    100000
Info: ENERGY EVALUATION STEPS    100000
Info: OUTPUT ENERGY PRECISION 4
Info: CROSSTERM ENERGY INCLUDED IN DIHEDRAL
Info: TIMING OUTPUT STEPS    1000000
Info: PRESSURE OUTPUT STEPS  100000
Info: FIXED ATOMS ACTIVE
Info: LANGEVIN DYNAMICS ACTIVE
Info: LANGEVIN TEMPERATURE   30
Info: LANGEVIN USING BBK INTEGRATOR
Info: LANGEVIN DAMPING COEFFICIENT IS 1 INVERSE PS
Info: LANGEVIN DYNAMICS APPLIED TO HYDROGENS
Info: LANGEVIN PISTON PRESSURE CONTROL ACTIVE
Info:        TARGET PRESSURE IS 1.01325 BAR
Info:     OSCILLATION PERIOD IS 50 FS
Info:             DECAY TIME IS 25 FS
Info:     PISTON TEMPERATURE IS 300 K
Info:       PRESSURE CONTROL IS GROUP-BASED
Info:    INITIAL STRAIN RATE IS 0 0 0
Info:       CELL FLUCTUATION IS ISOTROPIC
Info: PARTICLE MESH EWALD (PME) ACTIVE
Info: PME TOLERANCE               1e-06
Info: PME EWALD COEFFICIENT       0.348832
Info: PME INTERPOLATION ORDER     4
Info: PME GRID DIMENSIONS         40 36 32
Info: PME MAXIMUM GRID SPACING    1
Info: FULL ELECTROSTATIC EVALUATION FREQUENCY      2
Info: USING VERLET I (r-RESPA) MTS SCHEME.
Info: C1 SPLITTING OF LONG RANGE ELECTROSTATICS
Info: PLACING ATOMS IN PATCHES BY HYDROGEN GROUPS
Info: RIGID BONDS TO HYDROGEN : ALL
Info:         ERROR TOLERANCE : 1e-08
Info:          MAX ITERATIONS : 100
Info: RIGID WATER USING SETTLE ALGORITHM
Info: RANDOM NUMBER SEED     1744091155
Info: USE HYDROGEN BONDS?    NO
Info: Using AMBER format force field!
Info: AMBER PARM FILE        mobley_7988076.prmtop
Info: COORDINATE PDB         mobley_7988076.pdb
Info: Exclusions will be read from PARM file!
Info: SCNB (VDW SCALING)     2
Info: USING ARITHMETIC MEAN TO COMBINE L-J SIGMA PARAMETERS
Info: BINARY COORDINATES     mobley_7988076_min.coor
Info: SUMMARY OF PARAMETERS:
Info: 9 BONDS
Info: 8 ANGLES
Info:   8 HARMONIC
Info:   0 COSINE-BASED
Info: 5 DIHEDRAL
Info: 0 IMPROPER
Info: 0 CROSSTERM
Info: 0 VDW
Info: 28 VDW_PAIRS
Info: 0 NBTHOLE_PAIRS
Info: STRUCTURE SUMMARY:
Info: 2901 ATOMS
Info: 2901 BONDS
Info: 22 ANGLES
Info: 37 DIHEDRALS
Info: 0 IMPROPERS
Info: 0 CROSSTERMS
Info: 2950 EXCLUSIONS
Info: 15 FIXED ATOMS
Info: 2892 RIGID BONDS
Info: 6 RIGID BONDS BETWEEN FIXED ATOMS
Info: 5772 DEGREES OF FREEDOM
Info: 971 HYDROGEN GROUPS
Info: 3 ATOMS IN LARGEST HYDROGEN GROUP
Info: 971 MIGRATION GROUPS
Info: 3 ATOMS IN LARGEST MIGRATION GROUP
Info: 9 HYDROGEN GROUPS WITH ALL ATOMS FIXED
Info: TOTAL MASS = 17453.5 amu
Info: TOTAL CHARGE = -2.18861e-08 e
Info: MASS DENSITY = 0.697433 g/cm^3
Info: ATOM DENSITY = 0.0698085 atoms/A^3
Info: ADDED 0 IMPLICIT EXCLUSIONS
Info: NONBONDED TABLE R-SQUARED SPACING: 0.0625
Info: NONBONDED TABLE SIZE: 705 POINTS
Info: REMOVING COM VELOCITY 0.109814 -0.103063 -0.13951
TCL: Running for 100000 steps
ETITLE: TS BOND ANGLE DIHED IMPRP ELECT VDW BOUNDARY MISC KINETIC TOTAL TEMP POTENTIAL TOTAL3 TEMPAVG PRESSURE GPRESSURE VOLUME PRESSAVG GPRESSAVG
ENERGY: 0 0.0000 0.0000 0.0000 0.0000 -13509.1432 2310.3159 0.0000 0.0000 1731.0490 -9467.7783 301.8377 -11198.8273 -9467.4259 301.8377 70.1604 108.2943 41556.5725 70.1604 108.2943
ENERGY: 100000 0.0000 0.0000 0.0000 0.0000 -13948.7363 2403.7256 0.0000 0.0000 172.9224 -11372.0883 30.1519 -11545.0107 -11371.3767 30.8856 -285.5255 -234.0288 29437.8483 3.6819 3.6030
TCL: Running 100000 steps at 60 kelvin.
TCL: Setting parameter langevinTemp to 60
TCL: Running for 100000 steps
ETITLE: TS BOND ANGLE DIHED IMPRP ELECT VDW BOUNDARY MISC KINETIC TOTAL TEMP POTENTIAL TOTAL3 TEMPAVG PRESSURE GPRESSURE VOLUME PRESSAVG GPRESSAVG
ENERGY: 100000 0.0000 0.0000 0.0000 0.0000 -13948.7363 2403.7256 0.0000 0.0000 172.8401 -11372.1706 30.1376 -11545.0107 -11371.7964 30.1376 -282.5668 -234.0381 29437.8483 -282.5668 -234.0381
ENERGY: 200000 0.0000 0.0000 0.0000 0.0000 -13857.3256 2298.1631 0.0000 0.0000 348.8339 -11210.3286 60.8251 -11559.1625 -11209.1766 60.1927 -780.8723 -728.9684 28395.8536 4.8462 4.8111
TCL: Running 100000 steps at 90 kelvin.
TCL: Setting parameter langevinTemp to 90
TCL: Running for 100000 steps
ETITLE: TS BOND ANGLE DIHED IMPRP ELECT VDW BOUNDARY MISC KINETIC TOTAL TEMP POTENTIAL TOTAL3 TEMPAVG PRESSURE GPRESSURE VOLUME PRESSAVG GPRESSAVG
ENERGY: 200000 0.0000 0.0000 0.0000 0.0000 -13857.3256 2298.1631 0.0000 0.0000 348.6611 -11210.5015 60.7950 -11559.1625 -11209.7133 60.7950 -794.9952 -729.1431 28395.8536 -794.9952 -729.1431
ENERGY: 300000 0.0000 0.0000 0.0000 0.0000 -13849.6223 2361.0708 0.0000 0.0000 523.8765 -10964.6750 91.3467 -11488.5515 -10963.3575 90.0550 197.9007 239.9859 28029.1624 4.6696 4.6517
TCL: Running 100000 steps at 120 kelvin.
TCL: Setting parameter langevinTemp to 120
TCL: Running for 100000 steps
ETITLE: TS BOND ANGLE DIHED IMPRP ELECT VDW BOUNDARY MISC KINETIC TOTAL TEMP POTENTIAL TOTAL3 TEMPAVG PRESSURE GPRESSURE VOLUME PRESSAVG GPRESSAVG
ENERGY: 300000 0.0000 0.0000 0.0000 0.0000 -13849.6223 2361.0708 0.0000 0.0000 523.6181 -10964.9334 91.3017 -11488.5515 -10963.6664 91.3017 192.9615 239.7878 28029.1624 192.9615 239.7878
ENERGY: 400000 0.0000 0.0000 0.0000 0.0000 -13705.3009 2333.9264 0.0000 0.0000 670.6519 -10700.7226 116.9395 -11371.3745 -10698.6139 120.2196 193.3043 297.2656 28299.1523 3.7183 3.7915
TCL: Running 100000 steps at 150 kelvin.
TCL: Setting parameter langevinTemp to 150
TCL: Running for 100000 steps
ETITLE: TS BOND ANGLE DIHED IMPRP ELECT VDW BOUNDARY MISC KINETIC TOTAL TEMP POTENTIAL TOTAL3 TEMPAVG PRESSURE GPRESSURE VOLUME PRESSAVG GPRESSAVG
ENERGY: 400000 0.0000 0.0000 0.0000 0.0000 -13705.3009 2333.9264 0.0000 0.0000 670.3077 -10701.0668 116.8795 -11371.3745 -10699.6191 116.8795 231.4569 297.2505 28299.1523 231.4569 297.2505
ENERGY: 500000 0.0000 0.0000 0.0000 0.0000 -13301.2407 2141.4162 0.0000 0.0000 858.2345 -10301.5901 149.6477 -11159.8245 -10299.7011 149.9544 -786.8254 -734.6993 28769.8405 4.3551 4.3784
TCL: Running 100000 steps at 180 kelvin.
TCL: Setting parameter langevinTemp to 180
TCL: Running for 100000 steps
ETITLE: TS BOND ANGLE DIHED IMPRP ELECT VDW BOUNDARY MISC KINETIC TOTAL TEMP POTENTIAL TOTAL3 TEMPAVG PRESSURE GPRESSURE VOLUME PRESSAVG GPRESSAVG
ENERGY: 500000 0.0000 0.0000 0.0000 0.0000 -13301.2407 2141.4162 0.0000 0.0000 857.8241 -10302.0004 149.5761 -11159.8245 -10300.7220 149.5761 -788.6963 -735.4847 28769.8405 -788.6963 -735.4847
ENERGY: 600000 0.0000 0.0000 0.0000 0.0000 -12756.3708 1888.5593 0.0000 0.0000 1027.6870 -9840.1244 179.1946 -10867.8115 -9837.9381 180.0549 -1382.1616 -1320.9190 28377.3679 3.4520 3.4798
TCL: Running 100000 steps at 210 kelvin.
TCL: Setting parameter langevinTemp to 210
TCL: Running for 100000 steps
ETITLE: TS BOND ANGLE DIHED IMPRP ELECT VDW BOUNDARY MISC KINETIC TOTAL TEMP POTENTIAL TOTAL3 TEMPAVG PRESSURE GPRESSURE VOLUME PRESSAVG GPRESSAVG
ENERGY: 600000 0.0000 0.0000 0.0000 0.0000 -12756.3708 1888.5593 0.0000 0.0000 1027.1778 -9840.6337 179.1058 -10867.8115 -9838.3824 179.1058 -1377.8177 -1320.9279 28377.3679 -1377.8177 -1320.9279
ENERGY: 700000 0.0000 0.0000 0.0000 0.0000 -12320.8996 1900.1766 0.0000 0.0000 1227.9978 -9192.7252 214.1222 -10420.7230 -9190.5932 209.8341 339.7882 390.0266 28333.0906 4.2714 4.3043
TCL: Running 100000 steps at 240 kelvin.
TCL: Setting parameter langevinTemp to 240
TCL: Running for 100000 steps
ETITLE: TS BOND ANGLE DIHED IMPRP ELECT VDW BOUNDARY MISC KINETIC TOTAL TEMP POTENTIAL TOTAL3 TEMPAVG PRESSURE GPRESSURE VOLUME PRESSAVG GPRESSAVG
ENERGY: 700000 0.0000 0.0000 0.0000 0.0000 -12320.8996 1900.1766 0.0000 0.0000 1227.3974 -9193.3256 214.0175 -10420.7230 -9191.0640 214.0175 317.8749 390.7305 28333.0906 317.8749 390.7305
ENERGY: 800000 0.0000 0.0000 0.0000 0.0000 -11693.6226 1659.3281 0.0000 0.0000 1425.0983 -8609.1963 248.4900 -10034.2946 -8607.8928 240.0623 -472.9043 -411.9921 28819.2385 2.3121 2.3922
TCL: Running 100000 steps at 270 kelvin.
TCL: Setting parameter langevinTemp to 270
TCL: Running for 100000 steps
ETITLE: TS BOND ANGLE DIHED IMPRP ELECT VDW BOUNDARY MISC KINETIC TOTAL TEMP POTENTIAL TOTAL3 TEMPAVG PRESSURE GPRESSURE VOLUME PRESSAVG GPRESSAVG
ENERGY: 800000 0.0000 0.0000 0.0000 0.0000 -11693.6226 1659.3281 0.0000 0.0000 1424.4204 -8609.8741 248.3718 -10034.2946 -8607.4050 248.3718 -497.4521 -415.5807 28819.2385 -497.4521 -415.5807
ENERGY: 900000 0.0000 0.0000 0.0000 0.0000 -11168.6248 1561.8054 0.0000 0.0000 1585.3546 -8021.4648 276.4334 -9606.8194 -8016.2786 269.8548 16.9327 126.0651 29301.1645 2.8833 2.9445
TCL: Running 1000000 steps at 300 kelvin.
TCL: Setting parameter langevinTemp to 300
TCL: Running for 1000000 steps
ETITLE: TS BOND ANGLE DIHED IMPRP ELECT VDW BOUNDARY MISC KINETIC TOTAL TEMP POTENTIAL TOTAL3 TEMPAVG PRESSURE GPRESSURE VOLUME PRESSAVG GPRESSAVG
ENERGY: 900000 0.0000 0.0000 0.0000 0.0000 -11168.6248 1561.8054 0.0000 0.0000 1584.5416 -8022.2778 276.2916 -9606.8194 -8020.6804 276.2916 42.2911 128.3844 29301.1645 42.2911 128.3844
ENERGY: 1100000 0.0000 0.0000 0.0000 0.0000 -10612.5602 1419.6793 0.0000 0.0000 1764.4406 -7428.4403 307.6600 -9192.8809 -7424.7885 300.2919 211.0736 348.8769 29594.1881 3.3515 3.1175
ENERGY: 1300000 0.0000 0.0000 0.0000 0.0000 -10659.4778 1453.2826 0.0000 0.0000 1754.5036 -7451.6915 305.9274 -9206.1952 -7448.2809 299.9782 362.5481 441.7691 29791.3077 2.2862 2.1744
ENERGY: 1500000 0.0000 0.0000 0.0000 0.0000 -10724.1769 1446.8564 0.0000 0.0000 1704.9296 -7572.3909 297.2833 -9277.3205 -7570.1115 300.1231 -187.5465 -141.5398 30147.4810 2.2803 2.1473
ENERGY: 1700000 0.0000 0.0000 0.0000 0.0000 -10549.0575 1388.7089 0.0000 0.0000 1698.9735 -7461.3751 296.2448 -9160.3486 -7458.8154 299.9657 -348.1062 -291.0702 30456.9383 2.5350 2.5294
ENERGY: 1900000 0.0000 0.0000 0.0000 0.0000 -10669.5051 1443.1577 0.0000 0.0000 1738.2844 -7488.0630 303.0993 -9226.3474 -7484.7586 301.1726 24.4975 98.8760 30087.5542 3.2255 2.8666
TCL: Exiting due to exit command.
