Info: SIMULATION PARAMETERS:
Info: TIMESTEP               2
Info: NUMBER OF STEPS        0
Info: STEPS PER CYCLE        10
Info: PERIODIC CELL BASIS 1  37.38 0 0
Info: PERIODIC CELL BASIS 2  0 35.267 0
Info: PERIODIC CELL BASIS 3  0 0 33.152
Info: PERIODIC CELL CENTER   0 0 0
Info: WRAPPING WATERS AROUND PERIODIC BOUNDARIES ON OUTPUT.
Info: WRAPPING ALL CLUSTERS AROUND PERIODIC BOUNDARIES ON OUTPUT.
Info: FIRST LDB TIMESTEP     50
Info: LAST LDB TIMESTEP     -1
Info: HOM BACKGROUND SCALING 1
Info: PME BACKGROUND SCALING 1
Info: MIN ATOMS PER PATCH    40
Info: EMPTY PATCH LOAD       40 ATOMS
Info: INITIAL TEMPERATURE    300
Info: CENTER OF MASS MOVING INITIALLY? NO
Info: DIELECTRIC             1
Info: EXCLUDE                SCALED ONE-FOUR
Info: 1-4 ELECTROSTATICS SCALED BY 0.833333
Info: MODIFIED 1-4 VDW PARAMETERS WILL BE USED
Info: DCD FILENAME           mobley_9913368_equil.dcd
Info: DCD FREQUENCY          100000
Info: DCD FIRST STEP         100000
Info: DCD FILE WILL CONTAIN UNIT CELL DATA
Info: XST FILENAME           mobley_9913368_equil.xst
Info: XST FREQUENCY          100000
Info: NO VELOCITY DCD OUTPUT
Info: NO FORCE DCD OUTPUT
Info: OUTPUT FILENAME        mobley_9913368_equil
Info: BINARY OUTPUT FILES WILL BE USED
Info: RESTART FILENAME       mobley_9913368_equil.restart
Info: RESTART FREQUENCY      100000
Info: BINARY RESTART FILES WILL BE USED
Info: CUTOFF                 9
Info: PAIRLIST DISTANCE      11
Info: PAIRLIST SHRINK RATE   0.01
Info: PAIRLIST GROW RATE     0.01
Info: PAIRLIST TRIGGER       0.3
Info: PAIRLISTS PER CYCLE    2
Info: PAIRLISTS ENABLED
Info: MARGIN                 8
Info: HYDROGEN GROUP CUTOFF  2.5
Info: PATCH DIMENSION        21.5
Info: ENERGY OUTPUT STEPS    100000
Info: ENERGY EVALUATION STEPS    100000
Info: OUTPUT ENERGY PRECISION 4
Info: CROSSTERM ENERGY INCLUDED IN DIHEDRAL
Info: TIMING OUTPUT STEPS    1000000
Info: PRESSURE OUTPUT STEPS  100000
Info: FIXED ATOMS ACTIVE
Info: LANGEVIN DYNAMICS ACTIVE
Info: LANGEVIN TEMPERATURE   30
Info: LANGEVIN USING BBK INTEGRATOR
Info: LANGEVIN DAMPING COEFFICIENT IS 1 INVERSE PS
Info: LANGEVIN DYNAMICS APPLIED TO HYDROGENS
Info: LANGEVIN PISTON PRESSURE CONTROL ACTIVE
Info:        TARGET PRESSURE IS 1.01325 BAR
Info:     OSCILLATION PERIOD IS 50 FS
Info:             DECAY TIME IS 25 FS
Info:     PISTON TEMPERATURE IS 300 K
Info:       PRESSURE CONTROL IS GROUP-BASED
Info:    INITIAL STRAIN RATE IS 0 0 0
Info:       CELL FLUCTUATION IS ISOTROPIC
Info: PARTICLE MESH EWALD (PME) ACTIVE
Info: PME TOLERANCE               1e-06
Info: PME EWALD COEFFICIENT       0.348832
Info: PME INTERPOLATION ORDER     4
Info: PME GRID DIMENSIONS         40 36 36
Info: PME MAXIMUM GRID SPACING    1
Info: FULL ELECTROSTATIC EVALUATION FREQUENCY      2
Info: USING VERLET I (r-RESPA) MTS SCHEME.
Info: C1 SPLITTING OF LONG RANGE ELECTROSTATICS
Info: PLACING ATOMS IN PATCHES BY HYDROGEN GROUPS
Info: RIGID BONDS TO HYDROGEN : ALL
Info:         ERROR TOLERANCE : 1e-08
Info:          MAX ITERATIONS : 100
Info: RIGID WATER USING SETTLE ALGORITHM
Info: RANDOM NUMBER SEED     1743679626
Info: USE HYDROGEN BONDS?    NO
Info: Using AMBER format force field!
Info: AMBER PARM FILE        mobley_9913368.prmtop
Info: COORDINATE PDB         mobley_9913368.pdb
Info: Exclusions will be read from PARM file!
Info: SCNB (VDW SCALING)     2
Info: USING ARITHMETIC MEAN TO COMBINE L-J SIGMA PARAMETERS
Info: BINARY COORDINATES     mobley_9913368_min.coor
Info: SUMMARY OF PARAMETERS:
Info: 5 BONDS
Info: 3 ANGLES
Info:   3 HARMONIC
Info:   0 COSINE-BASED
Info: 2 DIHEDRAL
Info: 0 IMPROPER
Info: 0 CROSSTERM
Info: 0 VDW
Info: 15 VDW_PAIRS
Info: 0 NBTHOLE_PAIRS
Info: STRUCTURE SUMMARY:
Info: 2922 ATOMS
Info: 2921 BONDS
Info: 6 ANGLES
Info: 6 DIHEDRALS
Info: 0 IMPROPERS
Info: 0 CROSSTERMS
Info: 2931 EXCLUSIONS
Info: 6 FIXED ATOMS
Info: 2918 RIGID BONDS
Info: 2 RIGID BONDS BETWEEN FIXED ATOMS
Info: 5832 DEGREES OF FREEDOM
Info: 976 HYDROGEN GROUPS
Info: 3 ATOMS IN LARGEST HYDROGEN GROUP
Info: 976 MIGRATION GROUPS
Info: 3 ATOMS IN LARGEST MIGRATION GROUP
Info: 4 HYDROGEN GROUPS WITH ALL ATOMS FIXED
Info: TOTAL MASS = 17608.5 amu
Info: TOTAL CHARGE = 0.000100002 e
Info: MASS DENSITY = 0.669058 g/cm^3
Info: ATOM DENSITY = 0.0668594 atoms/A^3
Info: ADDED 0 IMPLICIT EXCLUSIONS
Info: NONBONDED TABLE R-SQUARED SPACING: 0.0625
Info: NONBONDED TABLE SIZE: 705 POINTS
Info: REMOVING COM VELOCITY 0.0146163 -0.0413861 -0.0741581
TCL: Running for 100000 steps
ETITLE: TS BOND ANGLE DIHED IMPRP ELECT VDW BOUNDARY MISC KINETIC TOTAL TEMP POTENTIAL TOTAL3 TEMPAVG PRESSURE GPRESSURE VOLUME PRESSAVG GPRESSAVG
ENERGY: 0 0.0000 0.0000 0.0000 0.0000 -13511.6229 2357.8758 0.0000 0.0000 1766.4265 -9387.3206 304.8375 -11153.7471 -9386.9604 304.8375 333.6453 368.2193 43703.6338 333.6453 368.2193
ENERGY: 100000 0.0000 0.0000 0.0000 0.0000 -13973.8313 2295.4063 0.0000 0.0000 178.5505 -11499.8744 30.8130 -11678.4249 -11499.2984 31.0009 -1392.7059 -1331.4665 28635.2109 4.0281 4.0494
TCL: Running 100000 steps at 60 kelvin.
TCL: Setting parameter langevinTemp to 60
TCL: Running for 100000 steps
ETITLE: TS BOND ANGLE DIHED IMPRP ELECT VDW BOUNDARY MISC KINETIC TOTAL TEMP POTENTIAL TOTAL3 TEMPAVG PRESSURE GPRESSURE VOLUME PRESSAVG GPRESSAVG
ENERGY: 100000 0.0000 0.0000 0.0000 0.0000 -13973.8313 2295.4063 0.0000 0.0000 178.4642 -11499.9607 30.7981 -11678.4249 -11499.6169 30.7981 -1392.3503 -1331.4490 28635.2109 -1392.3503 -1331.4490
ENERGY: 200000 0.0000 0.0000 0.0000 0.0000 -13987.5712 2397.8954 0.0000 0.0000 357.3354 -11232.3404 61.6664 -11589.6758 -11231.1383 59.8303 -42.0237 19.4461 28199.6174 3.2508 3.2054
TCL: Running 100000 steps at 90 kelvin.
TCL: Setting parameter langevinTemp to 90
TCL: Running for 100000 steps
ETITLE: TS BOND ANGLE DIHED IMPRP ELECT VDW BOUNDARY MISC KINETIC TOTAL TEMP POTENTIAL TOTAL3 TEMPAVG PRESSURE GPRESSURE VOLUME PRESSAVG GPRESSAVG
ENERGY: 200000 0.0000 0.0000 0.0000 0.0000 -13987.5712 2397.8954 0.0000 0.0000 357.1558 -11232.5200 61.6355 -11589.6758 -11231.9457 61.6355 -43.5282 19.7293 28199.6174 -43.5282 19.7293
ENERGY: 300000 0.0000 0.0000 0.0000 0.0000 -13969.1075 2462.0880 0.0000 0.0000 525.6890 -10981.3306 90.7197 -11507.0196 -10979.8273 90.1299 753.6760 786.6237 28208.9874 3.1456 3.0517
TCL: Running 100000 steps at 120 kelvin.
TCL: Setting parameter langevinTemp to 120
TCL: Running for 100000 steps
ETITLE: TS BOND ANGLE DIHED IMPRP ELECT VDW BOUNDARY MISC KINETIC TOTAL TEMP POTENTIAL TOTAL3 TEMPAVG PRESSURE GPRESSURE VOLUME PRESSAVG GPRESSAVG
ENERGY: 300000 0.0000 0.0000 0.0000 0.0000 -13969.1075 2462.0880 0.0000 0.0000 525.4217 -10981.5978 90.6736 -11507.0196 -10980.7223 90.6736 726.2641 786.9460 28208.9874 726.2641 786.9460
ENERGY: 400000 0.0000 0.0000 0.0000 0.0000 -13644.4260 2264.2259 0.0000 0.0000 692.1946 -10688.0054 119.4541 -11380.2000 -10686.3441 120.0928 -418.7388 -354.9949 28384.1596 3.9154 4.0280
TCL: Running 100000 steps at 150 kelvin.
TCL: Setting parameter langevinTemp to 150
TCL: Running for 100000 steps
ETITLE: TS BOND ANGLE DIHED IMPRP ELECT VDW BOUNDARY MISC KINETIC TOTAL TEMP POTENTIAL TOTAL3 TEMPAVG PRESSURE GPRESSURE VOLUME PRESSAVG GPRESSAVG
ENERGY: 400000 0.0000 0.0000 0.0000 0.0000 -13644.4260 2264.2259 0.0000 0.0000 691.8662 -10688.3339 119.3974 -11380.2000 -10686.9937 119.3974 -411.9988 -355.0534 28384.1596 -411.9988 -355.0534
ENERGY: 500000 0.0000 0.0000 0.0000 0.0000 -13385.3719 2186.4823 0.0000 0.0000 895.8308 -10303.0588 154.5962 -11198.8896 -10300.8819 149.6750 -326.9652 -271.4610 28397.8378 5.1512 5.2184
TCL: Running 100000 steps at 180 kelvin.
TCL: Setting parameter langevinTemp to 180
TCL: Running for 100000 steps
ETITLE: TS BOND ANGLE DIHED IMPRP ELECT VDW BOUNDARY MISC KINETIC TOTAL TEMP POTENTIAL TOTAL3 TEMPAVG PRESSURE GPRESSURE VOLUME PRESSAVG GPRESSAVG
ENERGY: 500000 0.0000 0.0000 0.0000 0.0000 -13385.3719 2186.4823 0.0000 0.0000 895.3695 -10303.5201 154.5166 -11198.8896 -10301.7416 154.5166 -323.1801 -271.0535 28397.8378 -323.1801 -271.0535
ENERGY: 600000 0.0000 0.0000 0.0000 0.0000 -12923.9075 2059.4332 0.0000 0.0000 1045.1939 -9819.2804 180.3723 -10864.4743 -9819.0390 180.4464 -184.6942 -123.8655 28581.3386 5.6245 5.5064
TCL: Running 100000 steps at 210 kelvin.
TCL: Setting parameter langevinTemp to 210
TCL: Running for 100000 steps
ETITLE: TS BOND ANGLE DIHED IMPRP ELECT VDW BOUNDARY MISC KINETIC TOTAL TEMP POTENTIAL TOTAL3 TEMPAVG PRESSURE GPRESSURE VOLUME PRESSAVG GPRESSAVG
ENERGY: 600000 0.0000 0.0000 0.0000 0.0000 -12923.9075 2059.4332 0.0000 0.0000 1044.6820 -9819.7923 180.2839 -10864.4743 -9818.0032 180.2839 -191.2785 -124.7180 28581.3386 -191.2785 -124.7180
ENERGY: 700000 0.0000 0.0000 0.0000 0.0000 -12375.2609 1913.0993 0.0000 0.0000 1201.5416 -9260.6201 207.3536 -10462.1616 -9256.8305 210.4425 83.1448 143.6441 28610.4780 4.9423 4.8632
TCL: Running 100000 steps at 240 kelvin.
TCL: Setting parameter langevinTemp to 240
TCL: Running for 100000 steps
ETITLE: TS BOND ANGLE DIHED IMPRP ELECT VDW BOUNDARY MISC KINETIC TOTAL TEMP POTENTIAL TOTAL3 TEMPAVG PRESSURE GPRESSURE VOLUME PRESSAVG GPRESSAVG
ENERGY: 700000 0.0000 0.0000 0.0000 0.0000 -12375.2609 1913.0993 0.0000 0.0000 1200.9371 -9261.2245 207.2493 -10462.1616 -9259.2276 207.2493 56.8505 144.3331 28610.4780 56.8505 144.3331
ENERGY: 800000 0.0000 0.0000 0.0000 0.0000 -11714.7270 1720.8978 0.0000 0.0000 1403.8823 -8589.9468 242.2722 -9993.8291 -8586.4983 239.3253 354.6549 427.2328 28593.4311 4.0465 4.0110
TCL: Running 100000 steps at 270 kelvin.
TCL: Setting parameter langevinTemp to 270
TCL: Running for 100000 steps
ETITLE: TS BOND ANGLE DIHED IMPRP ELECT VDW BOUNDARY MISC KINETIC TOTAL TEMP POTENTIAL TOTAL3 TEMPAVG PRESSURE GPRESSURE VOLUME PRESSAVG GPRESSAVG
ENERGY: 800000 0.0000 0.0000 0.0000 0.0000 -11714.7270 1720.8978 0.0000 0.0000 1403.1746 -8590.6545 242.1501 -9993.8291 -8588.3781 242.1501 343.7920 429.1453 28593.4311 343.7920 429.1453
ENERGY: 900000 0.0000 0.0000 0.0000 0.0000 -11122.5722 1510.4312 0.0000 0.0000 1567.8882 -8044.2527 270.5752 -9612.1410 -8040.4797 270.1795 -899.9313 -769.7864 30141.0561 3.8354 3.7215
TCL: Running 1000000 steps at 300 kelvin.
TCL: Setting parameter langevinTemp to 300
TCL: Running for 1000000 steps
ETITLE: TS BOND ANGLE DIHED IMPRP ELECT VDW BOUNDARY MISC KINETIC TOTAL TEMP POTENTIAL TOTAL3 TEMPAVG PRESSURE GPRESSURE VOLUME PRESSAVG GPRESSAVG
ENERGY: 900000 0.0000 0.0000 0.0000 0.0000 -11122.5722 1510.4312 0.0000 0.0000 1567.1022 -8045.0388 270.4395 -9612.1410 -8042.1495 270.4395 -864.8461 -769.5028 30141.0561 -864.8461 -769.5028
ENERGY: 1100000 0.0000 0.0000 0.0000 0.0000 -10473.5836 1326.4880 0.0000 0.0000 1716.7378 -7430.3578 296.2626 -9147.0956 -7427.4382 300.1313 -690.8058 -648.6639 30194.6698 2.9982 3.0025
ENERGY: 1300000 0.0000 0.0000 0.0000 0.0000 -10632.0216 1396.8623 0.0000 0.0000 1716.1468 -7519.0126 296.1606 -9235.1593 -7515.4296 300.7498 -327.7151 -296.8244 30268.1917 2.9410 3.0692
ENERGY: 1500000 0.0000 0.0000 0.0000 0.0000 -10720.2200 1512.0648 0.0000 0.0000 1748.1972 -7459.9579 301.6917 -9208.1552 -7455.7416 300.5309 526.7212 621.5457 30034.8959 3.2628 3.0834
ENERGY: 1700000 0.0000 0.0000 0.0000 0.0000 -10613.3412 1344.6717 0.0000 0.0000 1729.3035 -7539.3660 298.4311 -9268.6696 -7534.1686 300.1541 -966.6701 -904.5416 30185.9000 2.5136 2.6539
ENERGY: 1900000 0.0000 0.0000 0.0000 0.0000 -10627.5575 1404.5984 0.0000 0.0000 1739.7976 -7483.1614 300.2421 -9222.9591 -7480.5054 300.3796 -127.4236 -52.3584 29893.0572 3.2048 3.0857
TCL: Exiting due to exit command.
