Info: SIMULATION PARAMETERS:
Info: TIMESTEP               2
Info: NUMBER OF STEPS        0
Info: STEPS PER CYCLE        10
Info: PERIODIC CELL BASIS 1  35.89 0 0
Info: PERIODIC CELL BASIS 2  0 35.779 0
Info: PERIODIC CELL BASIS 3  0 0 34.933
Info: PERIODIC CELL CENTER   0 0 0
Info: WRAPPING WATERS AROUND PERIODIC BOUNDARIES ON OUTPUT.
Info: WRAPPING ALL CLUSTERS AROUND PERIODIC BOUNDARIES ON OUTPUT.
Info: FIRST LDB TIMESTEP     50
Info: LAST LDB TIMESTEP     -1
Info: HOM BACKGROUND SCALING 1
Info: PME BACKGROUND SCALING 1
Info: MIN ATOMS PER PATCH    40
Info: EMPTY PATCH LOAD       40 ATOMS
Info: INITIAL TEMPERATURE    300
Info: CENTER OF MASS MOVING INITIALLY? NO
Info: DIELECTRIC             1
Info: EXCLUDE                SCALED ONE-FOUR
Info: 1-4 ELECTROSTATICS SCALED BY 0.833333
Info: MODIFIED 1-4 VDW PARAMETERS WILL BE USED
Info: DCD FILENAME           mobley_8882696_equil.dcd
Info: DCD FREQUENCY          100000
Info: DCD FIRST STEP         100000
Info: DCD FILE WILL CONTAIN UNIT CELL DATA
Info: XST FILENAME           mobley_8882696_equil.xst
Info: XST FREQUENCY          100000
Info: NO VELOCITY DCD OUTPUT
Info: NO FORCE DCD OUTPUT
Info: OUTPUT FILENAME        mobley_8882696_equil
Info: BINARY OUTPUT FILES WILL BE USED
Info: RESTART FILENAME       mobley_8882696_equil.restart
Info: RESTART FREQUENCY      100000
Info: BINARY RESTART FILES WILL BE USED
Info: CUTOFF                 9
Info: PAIRLIST DISTANCE      11
Info: PAIRLIST SHRINK RATE   0.01
Info: PAIRLIST GROW RATE     0.01
Info: PAIRLIST TRIGGER       0.3
Info: PAIRLISTS PER CYCLE    2
Info: PAIRLISTS ENABLED
Info: MARGIN                 8
Info: HYDROGEN GROUP CUTOFF  2.5
Info: PATCH DIMENSION        21.5
Info: ENERGY OUTPUT STEPS    100000
Info: ENERGY EVALUATION STEPS    100000
Info: OUTPUT ENERGY PRECISION 4
Info: CROSSTERM ENERGY INCLUDED IN DIHEDRAL
Info: TIMING OUTPUT STEPS    1000000
Info: PRESSURE OUTPUT STEPS  100000
Info: FIXED ATOMS ACTIVE
Info: LANGEVIN DYNAMICS ACTIVE
Info: LANGEVIN TEMPERATURE   30
Info: LANGEVIN USING BBK INTEGRATOR
Info: LANGEVIN DAMPING COEFFICIENT IS 1 INVERSE PS
Info: LANGEVIN DYNAMICS APPLIED TO HYDROGENS
Info: LANGEVIN PISTON PRESSURE CONTROL ACTIVE
Info:        TARGET PRESSURE IS 1.01325 BAR
Info:     OSCILLATION PERIOD IS 50 FS
Info:             DECAY TIME IS 25 FS
Info:     PISTON TEMPERATURE IS 300 K
Info:       PRESSURE CONTROL IS GROUP-BASED
Info:    INITIAL STRAIN RATE IS 0 0 0
Info:       CELL FLUCTUATION IS ISOTROPIC
Info: PARTICLE MESH EWALD (PME) ACTIVE
Info: PME TOLERANCE               1e-06
Info: PME EWALD COEFFICIENT       0.348832
Info: PME INTERPOLATION ORDER     4
Info: PME GRID DIMENSIONS         36 36 36
Info: PME MAXIMUM GRID SPACING    1
Info: FULL ELECTROSTATIC EVALUATION FREQUENCY      2
Info: USING VERLET I (r-RESPA) MTS SCHEME.
Info: C1 SPLITTING OF LONG RANGE ELECTROSTATICS
Info: PLACING ATOMS IN PATCHES BY HYDROGEN GROUPS
Info: RIGID BONDS TO HYDROGEN : ALL
Info:         ERROR TOLERANCE : 1e-08
Info:          MAX ITERATIONS : 100
Info: RIGID WATER USING SETTLE ALGORITHM
Info: RANDOM NUMBER SEED     1743730756
Info: USE HYDROGEN BONDS?    NO
Info: Using AMBER format force field!
Info: AMBER PARM FILE        mobley_8882696.prmtop
Info: COORDINATE PDB         mobley_8882696.pdb
Info: Exclusions will be read from PARM file!
Info: SCNB (VDW SCALING)     2
Info: USING ARITHMETIC MEAN TO COMBINE L-J SIGMA PARAMETERS
Info: BINARY COORDINATES     mobley_8882696_min.coor
Info: SUMMARY OF PARAMETERS:
Info: 6 BONDS
Info: 8 ANGLES
Info:   8 HARMONIC
Info:   0 COSINE-BASED
Info: 11 DIHEDRAL
Info: 0 IMPROPER
Info: 0 CROSSTERM
Info: 0 VDW
Info: 21 VDW_PAIRS
Info: 0 NBTHOLE_PAIRS
Info: STRUCTURE SUMMARY:
Info: 2926 ATOMS
Info: 2926 BONDS
Info: 25 ANGLES
Info: 41 DIHEDRALS
Info: 0 IMPROPERS
Info: 0 CROSSTERMS
Info: 2979 EXCLUSIONS
Info: 13 FIXED ATOMS
Info: 2921 RIGID BONDS
Info: 8 RIGID BONDS BETWEEN FIXED ATOMS
Info: 5826 DEGREES OF FREEDOM
Info: 976 HYDROGEN GROUPS
Info: 3 ATOMS IN LARGEST HYDROGEN GROUP
Info: 976 MIGRATION GROUPS
Info: 3 ATOMS IN LARGEST MIGRATION GROUP
Info: 5 HYDROGEN GROUPS WITH ALL ATOMS FIXED
Info: TOTAL MASS = 17565.6 amu
Info: TOTAL CHARGE = -0.000100002 e
Info: MASS DENSITY = 0.650258 g/cm^3
Info: ATOM DENSITY = 0.0652284 atoms/A^3
Info: ADDED 0 IMPLICIT EXCLUSIONS
Info: NONBONDED TABLE R-SQUARED SPACING: 0.0625
Info: NONBONDED TABLE SIZE: 705 POINTS
Info: REMOVING COM VELOCITY -0.0659356 -0.00205818 -0.0536641
TCL: Running for 100000 steps
ETITLE: TS BOND ANGLE DIHED IMPRP ELECT VDW BOUNDARY MISC KINETIC TOTAL TEMP POTENTIAL TOTAL3 TEMPAVG PRESSURE GPRESSURE VOLUME PRESSAVG GPRESSAVG
ENERGY: 0 0.0000 0.0000 0.0000 0.0000 -13650.3968 2434.8516 0.0000 0.0000 1750.6864 -9464.8588 302.4324 -11215.5452 -9464.5311 302.4324 539.0031 578.1055 44857.7556 539.0031 578.1055
ENERGY: 100000 0.0000 0.0000 0.0000 0.0000 -14197.2092 2549.0892 0.0000 0.0000 175.2913 -11472.8287 30.2817 -11648.1200 -11472.2676 30.9322 914.3272 945.2528 28571.1031 2.8718 2.7883
TCL: Running 100000 steps at 60 kelvin.
TCL: Setting parameter langevinTemp to 60
TCL: Running for 100000 steps
ETITLE: TS BOND ANGLE DIHED IMPRP ELECT VDW BOUNDARY MISC KINETIC TOTAL TEMP POTENTIAL TOTAL3 TEMPAVG PRESSURE GPRESSURE VOLUME PRESSAVG GPRESSAVG
ENERGY: 100000 0.0000 0.0000 0.0000 0.0000 -14197.2092 2549.0892 0.0000 0.0000 175.2101 -11472.9099 30.2677 -11648.1200 -11472.6256 30.2677 899.4100 945.4547 28571.1031 899.4100 945.4547
ENERGY: 200000 0.0000 0.0000 0.0000 0.0000 -13962.8504 2355.2081 0.0000 0.0000 346.2956 -11261.3467 59.8228 -11607.6423 -11260.7111 60.0067 -581.3563 -524.3951 28665.3190 3.4089 3.3911
TCL: Running 100000 steps at 90 kelvin.
TCL: Setting parameter langevinTemp to 90
TCL: Running for 100000 steps
ETITLE: TS BOND ANGLE DIHED IMPRP ELECT VDW BOUNDARY MISC KINETIC TOTAL TEMP POTENTIAL TOTAL3 TEMPAVG PRESSURE GPRESSURE VOLUME PRESSAVG GPRESSAVG
ENERGY: 200000 0.0000 0.0000 0.0000 0.0000 -13962.8504 2355.2081 0.0000 0.0000 346.1231 -11261.5192 59.7930 -11607.6423 -11260.6226 59.7930 -583.5963 -524.7834 28665.3190 -583.5963 -524.7834
ENERGY: 300000 0.0000 0.0000 0.0000 0.0000 -13845.2264 2337.7475 0.0000 0.0000 514.6128 -10992.8661 88.8997 -11507.4789 -10991.3136 89.7428 -424.2224 -396.0904 28811.0557 5.1787 5.1482
TCL: Running 100000 steps at 120 kelvin.
TCL: Setting parameter langevinTemp to 120
TCL: Running for 100000 steps
ETITLE: TS BOND ANGLE DIHED IMPRP ELECT VDW BOUNDARY MISC KINETIC TOTAL TEMP POTENTIAL TOTAL3 TEMPAVG PRESSURE GPRESSURE VOLUME PRESSAVG GPRESSAVG
ENERGY: 300000 0.0000 0.0000 0.0000 0.0000 -13845.2264 2337.7475 0.0000 0.0000 514.3604 -10993.1185 88.8561 -11507.4789 -10991.9733 88.8561 -457.3328 -396.1068 28811.0557 -457.3328 -396.1068
ENERGY: 400000 0.0000 0.0000 0.0000 0.0000 -13757.5957 2365.0688 0.0000 0.0000 689.6618 -10702.8651 119.1396 -11392.5269 -10700.9851 119.8486 342.6044 409.5171 28536.4465 3.8621 3.8036
TCL: Running 100000 steps at 150 kelvin.
TCL: Setting parameter langevinTemp to 150
TCL: Running for 100000 steps
ETITLE: TS BOND ANGLE DIHED IMPRP ELECT VDW BOUNDARY MISC KINETIC TOTAL TEMP POTENTIAL TOTAL3 TEMPAVG PRESSURE GPRESSURE VOLUME PRESSAVG GPRESSAVG
ENERGY: 400000 0.0000 0.0000 0.0000 0.0000 -13757.5957 2365.0688 0.0000 0.0000 689.3171 -10703.2098 119.0800 -11392.5269 -10701.5272 119.0800 347.9592 409.6222 28536.4465 347.9592 409.6222
ENERGY: 500000 0.0000 0.0000 0.0000 0.0000 -13487.7981 2258.2585 0.0000 0.0000 887.9469 -10341.5926 153.3935 -11229.5396 -10339.1842 150.2731 -149.4562 -103.6064 28765.6320 3.1958 3.2138
TCL: Running 100000 steps at 180 kelvin.
TCL: Setting parameter langevinTemp to 180
TCL: Running for 100000 steps
ETITLE: TS BOND ANGLE DIHED IMPRP ELECT VDW BOUNDARY MISC KINETIC TOTAL TEMP POTENTIAL TOTAL3 TEMPAVG PRESSURE GPRESSURE VOLUME PRESSAVG GPRESSAVG
ENERGY: 500000 0.0000 0.0000 0.0000 0.0000 -13487.7981 2258.2585 0.0000 0.0000 887.5364 -10342.0031 153.3226 -11229.5396 -10339.8350 153.3226 -159.4257 -104.4589 28765.6320 -159.4257 -104.4589
ENERGY: 600000 0.0000 0.0000 0.0000 0.0000 -12966.9926 2056.2383 0.0000 0.0000 1034.8503 -9875.9040 178.7712 -10910.7543 -9872.2893 179.4724 -376.9744 -319.1160 28646.1390 3.1014 3.0698
TCL: Running 100000 steps at 210 kelvin.
TCL: Setting parameter langevinTemp to 210
TCL: Running for 100000 steps
ETITLE: TS BOND ANGLE DIHED IMPRP ELECT VDW BOUNDARY MISC KINETIC TOTAL TEMP POTENTIAL TOTAL3 TEMPAVG PRESSURE GPRESSURE VOLUME PRESSAVG GPRESSAVG
ENERGY: 600000 0.0000 0.0000 0.0000 0.0000 -12966.9926 2056.2383 0.0000 0.0000 1034.3551 -9876.3992 178.6856 -10910.7543 -9874.2122 178.6856 -371.4175 -318.3620 28646.1390 -371.4175 -318.3620
ENERGY: 700000 0.0000 0.0000 0.0000 0.0000 -12403.4895 1943.7126 0.0000 0.0000 1235.0057 -9224.7712 213.3481 -10459.7769 -9221.0000 210.0328 368.6014 473.3041 28642.1890 2.2796 2.3126
TCL: Running 100000 steps at 240 kelvin.
TCL: Setting parameter langevinTemp to 240
TCL: Running for 100000 steps
ETITLE: TS BOND ANGLE DIHED IMPRP ELECT VDW BOUNDARY MISC KINETIC TOTAL TEMP POTENTIAL TOTAL3 TEMPAVG PRESSURE GPRESSURE VOLUME PRESSAVG GPRESSAVG
ENERGY: 700000 0.0000 0.0000 0.0000 0.0000 -12403.4895 1943.7126 0.0000 0.0000 1234.4072 -9225.3697 213.2447 -10459.7769 -9222.9535 213.2447 399.4145 471.5065 28642.1890 399.4145 471.5065
ENERGY: 800000 0.0000 0.0000 0.0000 0.0000 -11709.9379 1713.2874 0.0000 0.0000 1346.4036 -8650.2469 232.5922 -9996.6505 -8648.7518 239.5925 112.6221 187.0376 28931.8862 4.3943 4.2899
TCL: Running 100000 steps at 270 kelvin.
TCL: Setting parameter langevinTemp to 270
TCL: Running for 100000 steps
ETITLE: TS BOND ANGLE DIHED IMPRP ELECT VDW BOUNDARY MISC KINETIC TOTAL TEMP POTENTIAL TOTAL3 TEMPAVG PRESSURE GPRESSURE VOLUME PRESSAVG GPRESSAVG
ENERGY: 800000 0.0000 0.0000 0.0000 0.0000 -11709.9379 1713.2874 0.0000 0.0000 1345.7229 -8650.9276 232.4746 -9996.6505 -8649.2477 232.4746 118.8637 186.0161 28931.8862 118.8637 186.0161
ENERGY: 900000 0.0000 0.0000 0.0000 0.0000 -11115.1056 1504.0825 0.0000 0.0000 1525.1007 -8085.9224 263.4623 -9611.0231 -8082.2197 270.5165 -164.3012 -144.5922 29119.1528 2.5097 2.3823
TCL: Running 1000000 steps at 300 kelvin.
TCL: Setting parameter langevinTemp to 300
TCL: Running for 1000000 steps
ETITLE: TS BOND ANGLE DIHED IMPRP ELECT VDW BOUNDARY MISC KINETIC TOTAL TEMP POTENTIAL TOTAL3 TEMPAVG PRESSURE GPRESSURE VOLUME PRESSAVG GPRESSAVG
ENERGY: 900000 0.0000 0.0000 0.0000 0.0000 -11115.1056 1504.0825 0.0000 0.0000 1524.3068 -8086.7163 263.3251 -9611.0231 -8083.9547 263.3251 -228.5755 -144.6848 29119.1528 -228.5755 -144.6848
ENERGY: 1100000 0.0000 0.0000 0.0000 0.0000 -10561.4965 1380.1827 0.0000 0.0000 1768.6147 -7412.6991 305.5295 -9181.3138 -7408.4559 299.7707 -376.7732 -348.5678 30243.8220 2.4347 2.3988
ENERGY: 1300000 0.0000 0.0000 0.0000 0.0000 -10668.6898 1495.0462 0.0000 0.0000 1730.7060 -7442.9376 298.9807 -9173.6436 -7439.6054 300.4775 864.7642 921.2096 29689.6656 4.2318 4.1683
ENERGY: 1500000 0.0000 0.0000 0.0000 0.0000 -10617.0678 1403.2869 0.0000 0.0000 1696.1041 -7517.6768 293.0032 -9213.7809 -7514.8768 300.7019 -65.4400 58.8836 29837.0788 2.0617 2.3142
ENERGY: 1700000 0.0000 0.0000 0.0000 0.0000 -10529.8189 1351.7347 0.0000 0.0000 1689.2552 -7488.8290 291.8201 -9178.0841 -7486.8936 299.8301 -232.3092 -105.3607 29508.1706 2.4159 2.2555
ENERGY: 1900000 0.0000 0.0000 0.0000 0.0000 -10500.2126 1321.4903 0.0000 0.0000 1706.3674 -7472.3549 294.7762 -9178.7223 -7472.1467 300.0691 -1093.5631 -935.2014 30635.1583 2.3183 2.3095
TCL: Exiting due to exit command.
