Info: SIMULATION PARAMETERS:
Info: TIMESTEP               2
Info: NUMBER OF STEPS        0
Info: STEPS PER CYCLE        10
Info: PERIODIC CELL BASIS 1  37.435 0 0
Info: PERIODIC CELL BASIS 2  0 35.267 0
Info: PERIODIC CELL BASIS 3  0 0 32.993
Info: PERIODIC CELL CENTER   0 0 0
Info: WRAPPING WATERS AROUND PERIODIC BOUNDARIES ON OUTPUT.
Info: WRAPPING ALL CLUSTERS AROUND PERIODIC BOUNDARIES ON OUTPUT.
Info: FIRST LDB TIMESTEP     50
Info: LAST LDB TIMESTEP     -1
Info: HOM BACKGROUND SCALING 1
Info: PME BACKGROUND SCALING 1
Info: MIN ATOMS PER PATCH    40
Info: EMPTY PATCH LOAD       40 ATOMS
Info: INITIAL TEMPERATURE    300
Info: CENTER OF MASS MOVING INITIALLY? NO
Info: DIELECTRIC             1
Info: EXCLUDE                SCALED ONE-FOUR
Info: 1-4 ELECTROSTATICS SCALED BY 0.833333
Info: MODIFIED 1-4 VDW PARAMETERS WILL BE USED
Info: DCD FILENAME           mobley_1363784_equil.dcd
Info: DCD FREQUENCY          100000
Info: DCD FIRST STEP         100000
Info: DCD FILE WILL CONTAIN UNIT CELL DATA
Info: XST FILENAME           mobley_1363784_equil.xst
Info: XST FREQUENCY          100000
Info: NO VELOCITY DCD OUTPUT
Info: NO FORCE DCD OUTPUT
Info: OUTPUT FILENAME        mobley_1363784_equil
Info: BINARY OUTPUT FILES WILL BE USED
Info: RESTART FILENAME       mobley_1363784_equil.restart
Info: RESTART FREQUENCY      100000
Info: BINARY RESTART FILES WILL BE USED
Info: CUTOFF                 9
Info: PAIRLIST DISTANCE      11
Info: PAIRLIST SHRINK RATE   0.01
Info: PAIRLIST GROW RATE     0.01
Info: PAIRLIST TRIGGER       0.3
Info: PAIRLISTS PER CYCLE    2
Info: PAIRLISTS ENABLED
Info: MARGIN                 8
Info: HYDROGEN GROUP CUTOFF  2.5
Info: PATCH DIMENSION        21.5
Info: ENERGY OUTPUT STEPS    100000
Info: ENERGY EVALUATION STEPS    100000
Info: OUTPUT ENERGY PRECISION 4
Info: CROSSTERM ENERGY INCLUDED IN DIHEDRAL
Info: TIMING OUTPUT STEPS    1000000
Info: PRESSURE OUTPUT STEPS  100000
Info: FIXED ATOMS ACTIVE
Info: LANGEVIN DYNAMICS ACTIVE
Info: LANGEVIN TEMPERATURE   30
Info: LANGEVIN USING BBK INTEGRATOR
Info: LANGEVIN DAMPING COEFFICIENT IS 1 INVERSE PS
Info: LANGEVIN DYNAMICS APPLIED TO HYDROGENS
Info: LANGEVIN PISTON PRESSURE CONTROL ACTIVE
Info:        TARGET PRESSURE IS 1.01325 BAR
Info:     OSCILLATION PERIOD IS 50 FS
Info:             DECAY TIME IS 25 FS
Info:     PISTON TEMPERATURE IS 300 K
Info:       PRESSURE CONTROL IS GROUP-BASED
Info:    INITIAL STRAIN RATE IS 0 0 0
Info:       CELL FLUCTUATION IS ISOTROPIC
Info: PARTICLE MESH EWALD (PME) ACTIVE
Info: PME TOLERANCE               1e-06
Info: PME EWALD COEFFICIENT       0.348832
Info: PME INTERPOLATION ORDER     4
Info: PME GRID DIMENSIONS         40 36 36
Info: PME MAXIMUM GRID SPACING    1
Info: FULL ELECTROSTATIC EVALUATION FREQUENCY      2
Info: USING VERLET I (r-RESPA) MTS SCHEME.
Info: C1 SPLITTING OF LONG RANGE ELECTROSTATICS
Info: PLACING ATOMS IN PATCHES BY HYDROGEN GROUPS
Info: RIGID BONDS TO HYDROGEN : ALL
Info:         ERROR TOLERANCE : 1e-08
Info:          MAX ITERATIONS : 100
Info: RIGID WATER USING SETTLE ALGORITHM
Info: RANDOM NUMBER SEED     1744676552
Info: USE HYDROGEN BONDS?    NO
Info: Using AMBER format force field!
Info: AMBER PARM FILE        mobley_1363784.prmtop
Info: COORDINATE PDB         mobley_1363784.pdb
Info: Exclusions will be read from PARM file!
Info: SCNB (VDW SCALING)     2
Info: USING ARITHMETIC MEAN TO COMBINE L-J SIGMA PARAMETERS
Info: BINARY COORDINATES     mobley_1363784_min.coor
Info: SUMMARY OF PARAMETERS:
Info: 8 BONDS
Info: 9 ANGLES
Info:   9 HARMONIC
Info:   0 COSINE-BASED
Info: 4 DIHEDRAL
Info: 0 IMPROPER
Info: 0 CROSSTERM
Info: 0 VDW
Info: 36 VDW_PAIRS
Info: 0 NBTHOLE_PAIRS
Info: STRUCTURE SUMMARY:
Info: 2939 ATOMS
Info: 2939 BONDS
Info: 28 ANGLES
Info: 37 DIHEDRALS
Info: 0 IMPROPERS
Info: 0 CROSSTERMS
Info: 2996 EXCLUSIONS
Info: 17 FIXED ATOMS
Info: 2931 RIGID BONDS
Info: 9 RIGID BONDS BETWEEN FIXED ATOMS
Info: 5844 DEGREES OF FREEDOM
Info: 982 HYDROGEN GROUPS
Info: 4 ATOMS IN LARGEST HYDROGEN GROUP
Info: 982 MIGRATION GROUPS
Info: 4 ATOMS IN LARGEST MIGRATION GROUP
Info: 8 HYDROGEN GROUPS WITH ALL ATOMS FIXED
Info: TOTAL MASS = 17654.7 amu
Info: TOTAL CHARGE = 0.000400014 e
Info: MASS DENSITY = 0.673058 g/cm^3
Info: ATOM DENSITY = 0.0674732 atoms/A^3
Info: ADDED 0 IMPLICIT EXCLUSIONS
Info: NONBONDED TABLE R-SQUARED SPACING: 0.0625
Info: NONBONDED TABLE SIZE: 705 POINTS
Info: REMOVING COM VELOCITY -0.00703327 0.234882 0.0319906
TCL: Running for 100000 steps
ETITLE: TS BOND ANGLE DIHED IMPRP ELECT VDW BOUNDARY MISC KINETIC TOTAL TEMP POTENTIAL TOTAL3 TEMPAVG PRESSURE GPRESSURE VOLUME PRESSAVG GPRESSAVG
ENERGY: 0 0.0000 0.0000 0.0000 0.0000 -13630.9064 2369.9032 0.0000 0.0000 1705.6440 -9555.3592 293.7437 -11261.0032 -9555.0373 293.7437 359.2145 393.6654 43558.0232 359.2145 393.6654
ENERGY: 100000 0.0000 0.0000 0.0000 0.0000 -14126.7930 2402.3913 0.0000 0.0000 172.5192 -11551.8825 29.7110 -11724.4017 -11551.5418 30.8328 -554.2262 -526.0199 29286.8671 4.9004 4.9155
TCL: Running 100000 steps at 60 kelvin.
TCL: Setting parameter langevinTemp to 60
TCL: Running for 100000 steps
ETITLE: TS BOND ANGLE DIHED IMPRP ELECT VDW BOUNDARY MISC KINETIC TOTAL TEMP POTENTIAL TOTAL3 TEMPAVG PRESSURE GPRESSURE VOLUME PRESSAVG GPRESSAVG
ENERGY: 100000 0.0000 0.0000 0.0000 0.0000 -14126.7930 2402.3913 0.0000 0.0000 172.4296 -11551.9720 29.6956 -11724.4017 -11551.6000 29.6956 -565.0882 -526.0598 29286.8671 -565.0882 -526.0598
ENERGY: 200000 0.0000 0.0000 0.0000 0.0000 -14001.0759 2348.3664 0.0000 0.0000 345.8856 -11306.8240 59.5679 -11652.7095 -11305.5724 59.8731 -647.3624 -629.8515 29042.2348 4.5304 4.5676
TCL: Running 100000 steps at 90 kelvin.
TCL: Setting parameter langevinTemp to 90
TCL: Running for 100000 steps
ETITLE: TS BOND ANGLE DIHED IMPRP ELECT VDW BOUNDARY MISC KINETIC TOTAL TEMP POTENTIAL TOTAL3 TEMPAVG PRESSURE GPRESSURE VOLUME PRESSAVG GPRESSAVG
ENERGY: 200000 0.0000 0.0000 0.0000 0.0000 -14001.0759 2348.3664 0.0000 0.0000 345.7092 -11307.0003 59.5376 -11652.7095 -11306.3358 59.5376 -689.4166 -629.3238 29042.2348 -689.4166 -629.3238
ENERGY: 300000 0.0000 0.0000 0.0000 0.0000 -13797.5194 2233.3038 0.0000 0.0000 517.9464 -11046.2693 89.2000 -11564.2156 -11044.8556 89.9820 -1195.5444 -1146.0803 29018.0726 3.0230 2.9851
TCL: Running 100000 steps at 120 kelvin.
TCL: Setting parameter langevinTemp to 120
TCL: Running for 100000 steps
ETITLE: TS BOND ANGLE DIHED IMPRP ELECT VDW BOUNDARY MISC KINETIC TOTAL TEMP POTENTIAL TOTAL3 TEMPAVG PRESSURE GPRESSURE VOLUME PRESSAVG GPRESSAVG
ENERGY: 300000 0.0000 0.0000 0.0000 0.0000 -13797.5194 2233.3038 0.0000 0.0000 517.6951 -11046.5205 89.1568 -11564.2156 -11045.4146 89.1568 -1215.9710 -1146.1025 29018.0726 -1215.9710 -1146.1025
ENERGY: 400000 0.0000 0.0000 0.0000 0.0000 -13718.0052 2289.2042 0.0000 0.0000 721.3233 -10707.4777 124.2253 -11428.8010 -10705.1091 120.0021 -62.4637 -44.5429 28671.9164 4.3779 4.2530
TCL: Running 100000 steps at 150 kelvin.
TCL: Setting parameter langevinTemp to 150
TCL: Running for 100000 steps
ETITLE: TS BOND ANGLE DIHED IMPRP ELECT VDW BOUNDARY MISC KINETIC TOTAL TEMP POTENTIAL TOTAL3 TEMPAVG PRESSURE GPRESSURE VOLUME PRESSAVG GPRESSAVG
ENERGY: 400000 0.0000 0.0000 0.0000 0.0000 -13718.0052 2289.2042 0.0000 0.0000 720.9796 -10707.8214 124.1661 -11428.8010 -10706.4960 124.1661 -99.6514 -43.8322 28671.9164 -99.6514 -43.8322
ENERGY: 500000 0.0000 0.0000 0.0000 0.0000 -13584.0970 2281.6816 0.0000 0.0000 869.4652 -10432.9502 149.7381 -11302.4154 -10430.8556 149.8848 148.1510 236.0338 28753.3001 4.3092 4.4355
TCL: Running 100000 steps at 180 kelvin.
TCL: Setting parameter langevinTemp to 180
TCL: Running for 100000 steps
ETITLE: TS BOND ANGLE DIHED IMPRP ELECT VDW BOUNDARY MISC KINETIC TOTAL TEMP POTENTIAL TOTAL3 TEMPAVG PRESSURE GPRESSURE VOLUME PRESSAVG GPRESSAVG
ENERGY: 500000 0.0000 0.0000 0.0000 0.0000 -13584.0970 2281.6816 0.0000 0.0000 869.0438 -10433.3716 149.6655 -11302.4154 -10431.4584 149.6655 174.0482 236.0406 28753.3001 174.0482 236.0406
ENERGY: 600000 0.0000 0.0000 0.0000 0.0000 -13267.8490 2213.2600 0.0000 0.0000 1059.1369 -9995.4521 182.4031 -11054.5890 -9992.3849 180.1291 667.8123 696.3128 28688.0803 3.1121 3.0306
TCL: Running 100000 steps at 210 kelvin.
TCL: Setting parameter langevinTemp to 210
TCL: Running for 100000 steps
ETITLE: TS BOND ANGLE DIHED IMPRP ELECT VDW BOUNDARY MISC KINETIC TOTAL TEMP POTENTIAL TOTAL3 TEMPAVG PRESSURE GPRESSURE VOLUME PRESSAVG GPRESSAVG
ENERGY: 600000 0.0000 0.0000 0.0000 0.0000 -13267.8490 2213.2600 0.0000 0.0000 1058.6208 -9995.9682 182.3143 -11054.5890 -9994.1796 182.3143 641.4477 696.6623 28688.0803 641.4477 696.6623
ENERGY: 700000 0.0000 0.0000 0.0000 0.0000 -12509.1075 1938.9413 0.0000 0.0000 1220.4286 -9349.7376 210.1806 -10570.1662 -9346.7013 210.0197 286.1810 379.6235 28567.4631 2.8813 2.8034
TCL: Running 100000 steps at 240 kelvin.
TCL: Setting parameter langevinTemp to 240
TCL: Running for 100000 steps
ETITLE: TS BOND ANGLE DIHED IMPRP ELECT VDW BOUNDARY MISC KINETIC TOTAL TEMP POTENTIAL TOTAL3 TEMPAVG PRESSURE GPRESSURE VOLUME PRESSAVG GPRESSAVG
ENERGY: 700000 0.0000 0.0000 0.0000 0.0000 -12509.1075 1938.9413 0.0000 0.0000 1219.8353 -9350.3309 210.0784 -10570.1662 -9348.5350 210.0784 291.0144 378.5803 28567.4631 291.0144 378.5803
ENERGY: 800000 0.0000 0.0000 0.0000 0.0000 -11838.6320 1703.3573 0.0000 0.0000 1406.7355 -8728.5392 242.2661 -10135.2747 -8724.9252 240.0437 -209.2561 -117.4139 28939.6141 4.2989 4.1020
TCL: Running 100000 steps at 270 kelvin.
TCL: Setting parameter langevinTemp to 270
TCL: Running for 100000 steps
ETITLE: TS BOND ANGLE DIHED IMPRP ELECT VDW BOUNDARY MISC KINETIC TOTAL TEMP POTENTIAL TOTAL3 TEMPAVG PRESSURE GPRESSURE VOLUME PRESSAVG GPRESSAVG
ENERGY: 800000 0.0000 0.0000 0.0000 0.0000 -11838.6320 1703.3573 0.0000 0.0000 1406.0335 -8729.2413 242.1452 -10135.2747 -8727.0569 242.1452 -195.1635 -117.3712 28939.6141 -195.1635 -117.3712
ENERGY: 900000 0.0000 0.0000 0.0000 0.0000 -11212.1080 1549.7410 0.0000 0.0000 1557.5118 -8104.8552 268.2326 -9662.3670 -8102.5608 270.0291 -442.9652 -298.5591 30226.6166 3.9533 3.9422
TCL: Running 1000000 steps at 300 kelvin.
TCL: Setting parameter langevinTemp to 300
TCL: Running for 1000000 steps
ETITLE: TS BOND ANGLE DIHED IMPRP ELECT VDW BOUNDARY MISC KINETIC TOTAL TEMP POTENTIAL TOTAL3 TEMPAVG PRESSURE GPRESSURE VOLUME PRESSAVG GPRESSAVG
ENERGY: 900000 0.0000 0.0000 0.0000 0.0000 -11212.1080 1549.7410 0.0000 0.0000 1556.7446 -8105.6224 268.1004 -9662.3670 -8103.1918 268.1004 -384.4847 -299.1295 30226.6166 -384.4847 -299.1295
ENERGY: 1100000 0.0000 0.0000 0.0000 0.0000 -10699.6989 1428.4464 0.0000 0.0000 1728.9435 -7542.3091 297.7563 -9271.2525 -7539.3399 300.7691 -101.8886 -49.0322 30457.5637 2.1640 2.0682
ENERGY: 1300000 0.0000 0.0000 0.0000 0.0000 -10673.6142 1369.4326 0.0000 0.0000 1802.1188 -7502.0628 310.3585 -9304.1816 -7499.1061 300.4986 -363.7273 -304.7315 30182.7489 3.5360 3.4952
ENERGY: 1500000 0.0000 0.0000 0.0000 0.0000 -10617.6974 1398.1232 0.0000 0.0000 1735.8932 -7483.6810 298.9532 -9219.5742 -7480.9767 299.9229 113.1939 109.8317 30060.5128 2.8257 2.7360
ENERGY: 1700000 0.0000 0.0000 0.0000 0.0000 -10662.1123 1392.1263 0.0000 0.0000 1811.0783 -7458.9077 311.9015 -9269.9860 -7457.2178 300.5475 -138.8908 -111.8464 30260.5202 3.9522 3.8150
ENERGY: 1900000 0.0000 0.0000 0.0000 0.0000 -10546.1357 1381.1321 0.0000 0.0000 1761.0969 -7403.9067 303.2937 -9165.0036 -7399.5984 299.9649 -238.1783 -104.9146 30574.3555 4.2186 4.1242
TCL: Exiting due to exit command.
