Info: SIMULATION PARAMETERS:
Info: TIMESTEP               2
Info: NUMBER OF STEPS        0
Info: STEPS PER CYCLE        10
Info: PERIODIC CELL BASIS 1  36.281 0 0
Info: PERIODIC CELL BASIS 2  0 35.779 0
Info: PERIODIC CELL BASIS 3  0 0 34.68
Info: PERIODIC CELL CENTER   0 0 0
Info: WRAPPING WATERS AROUND PERIODIC BOUNDARIES ON OUTPUT.
Info: WRAPPING ALL CLUSTERS AROUND PERIODIC BOUNDARIES ON OUTPUT.
Info: FIRST LDB TIMESTEP     50
Info: LAST LDB TIMESTEP     -1
Info: HOM BACKGROUND SCALING 1
Info: PME BACKGROUND SCALING 1
Info: MIN ATOMS PER PATCH    40
Info: EMPTY PATCH LOAD       40 ATOMS
Info: INITIAL TEMPERATURE    300
Info: CENTER OF MASS MOVING INITIALLY? NO
Info: DIELECTRIC             1
Info: EXCLUDE                SCALED ONE-FOUR
Info: 1-4 ELECTROSTATICS SCALED BY 0.833333
Info: MODIFIED 1-4 VDW PARAMETERS WILL BE USED
Info: DCD FILENAME           mobley_967099_equil.dcd
Info: DCD FREQUENCY          100000
Info: DCD FIRST STEP         100000
Info: DCD FILE WILL CONTAIN UNIT CELL DATA
Info: XST FILENAME           mobley_967099_equil.xst
Info: XST FREQUENCY          100000
Info: NO VELOCITY DCD OUTPUT
Info: NO FORCE DCD OUTPUT
Info: OUTPUT FILENAME        mobley_967099_equil
Info: BINARY OUTPUT FILES WILL BE USED
Info: RESTART FILENAME       mobley_967099_equil.restart
Info: RESTART FREQUENCY      100000
Info: BINARY RESTART FILES WILL BE USED
Info: CUTOFF                 9
Info: PAIRLIST DISTANCE      11
Info: PAIRLIST SHRINK RATE   0.01
Info: PAIRLIST GROW RATE     0.01
Info: PAIRLIST TRIGGER       0.3
Info: PAIRLISTS PER CYCLE    2
Info: PAIRLISTS ENABLED
Info: MARGIN                 8
Info: HYDROGEN GROUP CUTOFF  2.5
Info: PATCH DIMENSION        21.5
Info: ENERGY OUTPUT STEPS    100000
Info: ENERGY EVALUATION STEPS    100000
Info: OUTPUT ENERGY PRECISION 4
Info: CROSSTERM ENERGY INCLUDED IN DIHEDRAL
Info: TIMING OUTPUT STEPS    1000000
Info: PRESSURE OUTPUT STEPS  100000
Info: FIXED ATOMS ACTIVE
Info: LANGEVIN DYNAMICS ACTIVE
Info: LANGEVIN TEMPERATURE   30
Info: LANGEVIN USING BBK INTEGRATOR
Info: LANGEVIN DAMPING COEFFICIENT IS 1 INVERSE PS
Info: LANGEVIN DYNAMICS APPLIED TO HYDROGENS
Info: LANGEVIN PISTON PRESSURE CONTROL ACTIVE
Info:        TARGET PRESSURE IS 1.01325 BAR
Info:     OSCILLATION PERIOD IS 50 FS
Info:             DECAY TIME IS 25 FS
Info:     PISTON TEMPERATURE IS 300 K
Info:       PRESSURE CONTROL IS GROUP-BASED
Info:    INITIAL STRAIN RATE IS 0 0 0
Info:       CELL FLUCTUATION IS ISOTROPIC
Info: PARTICLE MESH EWALD (PME) ACTIVE
Info: PME TOLERANCE               1e-06
Info: PME EWALD COEFFICIENT       0.348832
Info: PME INTERPOLATION ORDER     4
Info: PME GRID DIMENSIONS         40 36 36
Info: PME MAXIMUM GRID SPACING    1
Info: FULL ELECTROSTATIC EVALUATION FREQUENCY      2
Info: USING VERLET I (r-RESPA) MTS SCHEME.
Info: C1 SPLITTING OF LONG RANGE ELECTROSTATICS
Info: PLACING ATOMS IN PATCHES BY HYDROGEN GROUPS
Info: RIGID BONDS TO HYDROGEN : ALL
Info:         ERROR TOLERANCE : 1e-08
Info:          MAX ITERATIONS : 100
Info: RIGID WATER USING SETTLE ALGORITHM
Info: RANDOM NUMBER SEED     1744721038
Info: USE HYDROGEN BONDS?    NO
Info: Using AMBER format force field!
Info: AMBER PARM FILE        mobley_967099.prmtop
Info: COORDINATE PDB         mobley_967099.pdb
Info: Exclusions will be read from PARM file!
Info: SCNB (VDW SCALING)     2
Info: USING ARITHMETIC MEAN TO COMBINE L-J SIGMA PARAMETERS
Info: BINARY COORDINATES     mobley_967099_min.coor
Info: SUMMARY OF PARAMETERS:
Info: 7 BONDS
Info: 8 ANGLES
Info:   8 HARMONIC
Info:   0 COSINE-BASED
Info: 3 DIHEDRAL
Info: 0 IMPROPER
Info: 0 CROSSTERM
Info: 0 VDW
Info: 28 VDW_PAIRS
Info: 0 NBTHOLE_PAIRS
Info: STRUCTURE SUMMARY:
Info: 2938 ATOMS
Info: 2937 BONDS
Info: 21 ANGLES
Info: 24 DIHEDRALS
Info: 0 IMPROPERS
Info: 0 CROSSTERMS
Info: 2982 EXCLUSIONS
Info: 13 FIXED ATOMS
Info: 2932 RIGID BONDS
Info: 7 RIGID BONDS BETWEEN FIXED ATOMS
Info: 5850 DEGREES OF FREEDOM
Info: 981 HYDROGEN GROUPS
Info: 4 ATOMS IN LARGEST HYDROGEN GROUP
Info: 981 MIGRATION GROUPS
Info: 4 ATOMS IN LARGEST MIGRATION GROUP
Info: 6 HYDROGEN GROUPS WITH ALL ATOMS FIXED
Info: TOTAL MASS = 17654.7 amu
Info: TOTAL CHARGE = 0.000400003 e
Info: MASS DENSITY = 0.651228 g/cm^3
Info: ATOM DENSITY = 0.0652627 atoms/A^3
Info: ADDED 0 IMPLICIT EXCLUSIONS
Info: NONBONDED TABLE R-SQUARED SPACING: 0.0625
Info: NONBONDED TABLE SIZE: 705 POINTS
Info: REMOVING COM VELOCITY 0.0355874 0.118744 0.135563
TCL: Running for 100000 steps
ETITLE: TS BOND ANGLE DIHED IMPRP ELECT VDW BOUNDARY MISC KINETIC TOTAL TEMP POTENTIAL TOTAL3 TEMPAVG PRESSURE GPRESSURE VOLUME PRESSAVG GPRESSAVG
ENERGY: 0 0.0000 0.0000 0.0000 0.0000 -13618.8891 2396.1300 0.0000 0.0000 1750.1071 -9472.6520 301.0920 -11222.7591 -9472.3020 301.0920 429.8516 460.1243 45018.0351 429.8516 460.1243
ENERGY: 100000 0.0000 0.0000 0.0000 0.0000 -14187.1700 2476.4146 0.0000 0.0000 178.6121 -11532.1433 30.7288 -11710.7555 -11531.4742 30.9717 115.8667 170.4431 28631.7636 3.6538 3.6898
TCL: Running 100000 steps at 60 kelvin.
TCL: Setting parameter langevinTemp to 60
TCL: Running for 100000 steps
ETITLE: TS BOND ANGLE DIHED IMPRP ELECT VDW BOUNDARY MISC KINETIC TOTAL TEMP POTENTIAL TOTAL3 TEMPAVG PRESSURE GPRESSURE VOLUME PRESSAVG GPRESSAVG
ENERGY: 100000 0.0000 0.0000 0.0000 0.0000 -14187.1700 2476.4146 0.0000 0.0000 178.5282 -11532.2273 30.7144 -11710.7555 -11531.8992 30.7144 96.6380 170.6545 28631.7636 96.6380 170.6545
ENERGY: 200000 0.0000 0.0000 0.0000 0.0000 -13871.7671 2230.2423 0.0000 0.0000 350.1892 -11291.3355 60.2473 -11641.5248 -11290.1727 59.9341 -1695.0590 -1657.9514 29007.5003 3.1920 3.1361
TCL: Running 100000 steps at 90 kelvin.
TCL: Setting parameter langevinTemp to 90
TCL: Running for 100000 steps
ETITLE: TS BOND ANGLE DIHED IMPRP ELECT VDW BOUNDARY MISC KINETIC TOTAL TEMP POTENTIAL TOTAL3 TEMPAVG PRESSURE GPRESSURE VOLUME PRESSAVG GPRESSAVG
ENERGY: 200000 0.0000 0.0000 0.0000 0.0000 -13871.7671 2230.2423 0.0000 0.0000 350.0101 -11291.5147 60.2164 -11641.5248 -11290.7014 60.2164 -1719.8959 -1657.9682 29007.5003 -1719.8959 -1657.9682
ENERGY: 300000 0.0000 0.0000 0.0000 0.0000 -13801.3503 2270.2494 0.0000 0.0000 526.2265 -11004.8744 90.5331 -11531.1009 -11002.8703 89.8339 -952.9934 -905.7306 29079.1935 4.3953 4.4732
TCL: Running 100000 steps at 120 kelvin.
TCL: Setting parameter langevinTemp to 120
TCL: Running for 100000 steps
ETITLE: TS BOND ANGLE DIHED IMPRP ELECT VDW BOUNDARY MISC KINETIC TOTAL TEMP POTENTIAL TOTAL3 TEMPAVG PRESSURE GPRESSURE VOLUME PRESSAVG GPRESSAVG
ENERGY: 300000 0.0000 0.0000 0.0000 0.0000 -13801.3503 2270.2494 0.0000 0.0000 525.9565 -11005.1444 90.4866 -11531.1009 -11003.9687 90.4866 -969.6663 -905.1979 29079.1935 -969.6663 -905.1979
ENERGY: 400000 0.0000 0.0000 0.0000 0.0000 -13688.7317 2281.4338 0.0000 0.0000 677.4557 -10729.8422 116.5508 -11407.2979 -10728.0118 119.9023 -406.1180 -368.1539 28984.1537 2.8033 2.9062
TCL: Running 100000 steps at 150 kelvin.
TCL: Setting parameter langevinTemp to 150
TCL: Running for 100000 steps
ETITLE: TS BOND ANGLE DIHED IMPRP ELECT VDW BOUNDARY MISC KINETIC TOTAL TEMP POTENTIAL TOTAL3 TEMPAVG PRESSURE GPRESSURE VOLUME PRESSAVG GPRESSAVG
ENERGY: 400000 0.0000 0.0000 0.0000 0.0000 -13688.7317 2281.4338 0.0000 0.0000 677.1126 -10730.1853 116.4918 -11407.2979 -10729.1284 116.4918 -423.2966 -368.0208 28984.1537 -423.2966 -368.0208
ENERGY: 500000 0.0000 0.0000 0.0000 0.0000 -13635.6204 2396.8517 0.0000 0.0000 869.0938 -10369.6749 149.5206 -11238.7687 -10368.6335 150.0673 1181.2130 1230.8920 28854.6550 4.0476 4.1395
TCL: Running 100000 steps at 180 kelvin.
TCL: Setting parameter langevinTemp to 180
TCL: Running for 100000 steps
ETITLE: TS BOND ANGLE DIHED IMPRP ELECT VDW BOUNDARY MISC KINETIC TOTAL TEMP POTENTIAL TOTAL3 TEMPAVG PRESSURE GPRESSURE VOLUME PRESSAVG GPRESSAVG
ENERGY: 500000 0.0000 0.0000 0.0000 0.0000 -13635.6204 2396.8517 0.0000 0.0000 868.6503 -10370.1184 149.4444 -11238.7687 -10368.4367 149.4444 1179.6463 1231.0748 28854.6550 1179.6463 1231.0748
ENERGY: 600000 0.0000 0.0000 0.0000 0.0000 -12996.9961 2075.6737 0.0000 0.0000 1030.3125 -9891.0098 177.2570 -10921.3223 -9888.7116 179.7851 34.3079 66.7984 28548.3853 3.3673 3.4127
TCL: Running 100000 steps at 210 kelvin.
TCL: Setting parameter langevinTemp to 210
TCL: Running for 100000 steps
ETITLE: TS BOND ANGLE DIHED IMPRP ELECT VDW BOUNDARY MISC KINETIC TOTAL TEMP POTENTIAL TOTAL3 TEMPAVG PRESSURE GPRESSURE VOLUME PRESSAVG GPRESSAVG
ENERGY: 600000 0.0000 0.0000 0.0000 0.0000 -12996.9961 2075.6737 0.0000 0.0000 1029.7689 -9891.5535 177.1635 -10921.3223 -9889.5523 177.1635 2.2913 66.7234 28548.3853 2.2913 66.7234
ENERGY: 700000 0.0000 0.0000 0.0000 0.0000 -12470.4222 1980.0319 0.0000 0.0000 1233.1365 -9257.2537 212.1513 -10490.3903 -9254.2253 209.8894 873.0456 935.7143 28565.9620 2.7596 2.7809
TCL: Running 100000 steps at 240 kelvin.
TCL: Setting parameter langevinTemp to 240
TCL: Running for 100000 steps
ETITLE: TS BOND ANGLE DIHED IMPRP ELECT VDW BOUNDARY MISC KINETIC TOTAL TEMP POTENTIAL TOTAL3 TEMPAVG PRESSURE GPRESSURE VOLUME PRESSAVG GPRESSAVG
ENERGY: 700000 0.0000 0.0000 0.0000 0.0000 -12470.4222 1980.0319 0.0000 0.0000 1232.5336 -9257.8567 212.0476 -10490.3903 -9255.9330 212.0476 857.3350 936.2451 28565.9620 857.3350 936.2451
ENERGY: 800000 0.0000 0.0000 0.0000 0.0000 -11754.5494 1726.4019 0.0000 0.0000 1365.0903 -8663.0573 234.8529 -10028.1476 -8660.1284 239.6792 308.0418 359.5099 28722.5011 2.9106 2.7895
TCL: Running 100000 steps at 270 kelvin.
TCL: Setting parameter langevinTemp to 270
TCL: Running for 100000 steps
ETITLE: TS BOND ANGLE DIHED IMPRP ELECT VDW BOUNDARY MISC KINETIC TOTAL TEMP POTENTIAL TOTAL3 TEMPAVG PRESSURE GPRESSURE VOLUME PRESSAVG GPRESSAVG
ENERGY: 800000 0.0000 0.0000 0.0000 0.0000 -11754.5494 1726.4019 0.0000 0.0000 1364.3628 -8663.7848 234.7277 -10028.1476 -8661.6695 234.7277 270.9905 359.1150 28722.5011 270.9905 359.1150
ENERGY: 900000 0.0000 0.0000 0.0000 0.0000 -11197.3469 1560.1124 0.0000 0.0000 1533.5080 -8103.7265 263.8278 -9637.2345 -8100.2401 269.4911 -174.7169 -100.1271 29737.4065 4.1800 4.2532
TCL: Running 1000000 steps at 300 kelvin.
TCL: Setting parameter langevinTemp to 300
TCL: Running for 1000000 steps
ETITLE: TS BOND ANGLE DIHED IMPRP ELECT VDW BOUNDARY MISC KINETIC TOTAL TEMP POTENTIAL TOTAL3 TEMPAVG PRESSURE GPRESSURE VOLUME PRESSAVG GPRESSAVG
ENERGY: 900000 0.0000 0.0000 0.0000 0.0000 -11197.3469 1560.1124 0.0000 0.0000 1532.7451 -8104.4894 263.6965 -9637.2345 -8102.2765 263.6965 -184.7829 -100.2202 29737.4065 -184.7829 -100.2202
ENERGY: 1100000 0.0000 0.0000 0.0000 0.0000 -10493.4963 1364.0488 0.0000 0.0000 1726.3310 -7403.1164 297.0015 -9129.4474 -7397.2793 300.4735 -382.7699 -264.9132 30436.4161 4.5610 4.4852
ENERGY: 1300000 0.0000 0.0000 0.0000 0.0000 -10660.4665 1441.3503 0.0000 0.0000 1772.6926 -7446.4236 304.9776 -9219.1162 -7443.7489 300.8207 49.6689 128.1687 30378.5755 3.0918 3.1189
ENERGY: 1500000 0.0000 0.0000 0.0000 0.0000 -10586.0360 1390.5324 0.0000 0.0000 1711.1778 -7484.3258 294.3945 -9195.5036 -7479.4284 300.2496 -244.1684 -196.6579 30210.3085 2.3384 2.2328
ENERGY: 1700000 0.0000 0.0000 0.0000 0.0000 -10703.5459 1432.0014 0.0000 0.0000 1829.8598 -7441.6848 314.8128 -9271.5446 -7438.6194 300.7172 351.2702 416.3572 29519.3304 4.0033 3.9398
ENERGY: 1900000 0.0000 0.0000 0.0000 0.0000 -10698.9755 1445.1345 0.0000 0.0000 1671.0901 -7582.7510 287.4977 -9253.8410 -7579.9116 300.5308 238.9623 371.1996 29853.3911 3.7305 3.9300
TCL: Exiting due to exit command.
