Info: SIMULATION PARAMETERS:
Info: TIMESTEP               2
Info: NUMBER OF STEPS        0
Info: STEPS PER CYCLE        10
Info: PERIODIC CELL BASIS 1  39.512 0 0
Info: PERIODIC CELL BASIS 2  0 35.411 0
Info: PERIODIC CELL BASIS 3  0 0 31.061
Info: PERIODIC CELL CENTER   0 0 0
Info: WRAPPING WATERS AROUND PERIODIC BOUNDARIES ON OUTPUT.
Info: WRAPPING ALL CLUSTERS AROUND PERIODIC BOUNDARIES ON OUTPUT.
Info: FIRST LDB TIMESTEP     50
Info: LAST LDB TIMESTEP     -1
Info: HOM BACKGROUND SCALING 1
Info: PME BACKGROUND SCALING 1
Info: MIN ATOMS PER PATCH    40
Info: EMPTY PATCH LOAD       40 ATOMS
Info: INITIAL TEMPERATURE    300
Info: CENTER OF MASS MOVING INITIALLY? NO
Info: DIELECTRIC             1
Info: EXCLUDE                SCALED ONE-FOUR
Info: 1-4 ELECTROSTATICS SCALED BY 0.833333
Info: MODIFIED 1-4 VDW PARAMETERS WILL BE USED
Info: DCD FILENAME           mobley_7017274_equil.dcd
Info: DCD FREQUENCY          100000
Info: DCD FIRST STEP         100000
Info: DCD FILE WILL CONTAIN UNIT CELL DATA
Info: XST FILENAME           mobley_7017274_equil.xst
Info: XST FREQUENCY          100000
Info: NO VELOCITY DCD OUTPUT
Info: NO FORCE DCD OUTPUT
Info: OUTPUT FILENAME        mobley_7017274_equil
Info: BINARY OUTPUT FILES WILL BE USED
Info: RESTART FILENAME       mobley_7017274_equil.restart
Info: RESTART FREQUENCY      100000
Info: BINARY RESTART FILES WILL BE USED
Info: CUTOFF                 9
Info: PAIRLIST DISTANCE      11
Info: PAIRLIST SHRINK RATE   0.01
Info: PAIRLIST GROW RATE     0.01
Info: PAIRLIST TRIGGER       0.3
Info: PAIRLISTS PER CYCLE    2
Info: PAIRLISTS ENABLED
Info: MARGIN                 8
Info: HYDROGEN GROUP CUTOFF  2.5
Info: PATCH DIMENSION        21.5
Info: ENERGY OUTPUT STEPS    100000
Info: ENERGY EVALUATION STEPS    100000
Info: OUTPUT ENERGY PRECISION 4
Info: CROSSTERM ENERGY INCLUDED IN DIHEDRAL
Info: TIMING OUTPUT STEPS    1000000
Info: PRESSURE OUTPUT STEPS  100000
Info: FIXED ATOMS ACTIVE
Info: LANGEVIN DYNAMICS ACTIVE
Info: LANGEVIN TEMPERATURE   30
Info: LANGEVIN USING BBK INTEGRATOR
Info: LANGEVIN DAMPING COEFFICIENT IS 1 INVERSE PS
Info: LANGEVIN DYNAMICS APPLIED TO HYDROGENS
Info: LANGEVIN PISTON PRESSURE CONTROL ACTIVE
Info:        TARGET PRESSURE IS 1.01325 BAR
Info:     OSCILLATION PERIOD IS 50 FS
Info:             DECAY TIME IS 25 FS
Info:     PISTON TEMPERATURE IS 300 K
Info:       PRESSURE CONTROL IS GROUP-BASED
Info:    INITIAL STRAIN RATE IS 0 0 0
Info:       CELL FLUCTUATION IS ISOTROPIC
Info: PARTICLE MESH EWALD (PME) ACTIVE
Info: PME TOLERANCE               1e-06
Info: PME EWALD COEFFICIENT       0.348832
Info: PME INTERPOLATION ORDER     4
Info: PME GRID DIMENSIONS         40 36 32
Info: PME MAXIMUM GRID SPACING    1
Info: FULL ELECTROSTATIC EVALUATION FREQUENCY      2
Info: USING VERLET I (r-RESPA) MTS SCHEME.
Info: C1 SPLITTING OF LONG RANGE ELECTROSTATICS
Info: PLACING ATOMS IN PATCHES BY HYDROGEN GROUPS
Info: RIGID BONDS TO HYDROGEN : ALL
Info:         ERROR TOLERANCE : 1e-08
Info:          MAX ITERATIONS : 100
Info: RIGID WATER USING SETTLE ALGORITHM
Info: RANDOM NUMBER SEED     1743765027
Info: USE HYDROGEN BONDS?    NO
Info: Using AMBER format force field!
Info: AMBER PARM FILE        mobley_7017274.prmtop
Info: COORDINATE PDB         mobley_7017274.pdb
Info: Exclusions will be read from PARM file!
Info: SCNB (VDW SCALING)     2
Info: USING ARITHMETIC MEAN TO COMBINE L-J SIGMA PARAMETERS
Info: BINARY COORDINATES     mobley_7017274_min.coor
Info: SUMMARY OF PARAMETERS:
Info: 4 BONDS
Info: 2 ANGLES
Info:   2 HARMONIC
Info:   0 COSINE-BASED
Info: 2 DIHEDRAL
Info: 0 IMPROPER
Info: 0 CROSSTERM
Info: 0 VDW
Info: 10 VDW_PAIRS
Info: 0 NBTHOLE_PAIRS
Info: STRUCTURE SUMMARY:
Info: 2928 ATOMS
Info: 2930 BONDS
Info: 42 ANGLES
Info: 78 DIHEDRALS
Info: 0 IMPROPERS
Info: 0 CROSSTERMS
Info: 3027 EXCLUSIONS
Info: 24 FIXED ATOMS
Info: 2914 RIGID BONDS
Info: 10 RIGID BONDS BETWEEN FIXED ATOMS
Info: 5808 DEGREES OF FREEDOM
Info: 982 HYDROGEN GROUPS
Info: 3 ATOMS IN LARGEST HYDROGEN GROUP
Info: 982 MIGRATION GROUPS
Info: 3 ATOMS IN LARGEST MIGRATION GROUP
Info: 14 HYDROGEN GROUPS WITH ALL ATOMS FIXED
Info: TOTAL MASS = 17617.7 amu
Info: TOTAL CHARGE = -0.000199988 e
Info: MASS DENSITY = 0.673172 g/cm^3
Info: ATOM DENSITY = 0.0673734 atoms/A^3
Info: ADDED 0 IMPLICIT EXCLUSIONS
Info: NONBONDED TABLE R-SQUARED SPACING: 0.0625
Info: NONBONDED TABLE SIZE: 705 POINTS
Info: REMOVING COM VELOCITY -0.066871 -0.0636757 0.0160527
TCL: Running for 100000 steps
ETITLE: TS BOND ANGLE DIHED IMPRP ELECT VDW BOUNDARY MISC KINETIC TOTAL TEMP POTENTIAL TOTAL3 TEMPAVG PRESSURE GPRESSURE VOLUME PRESSAVG GPRESSAVG
ENERGY: 0 0.0000 0.0000 0.0000 0.0000 -13523.6720 2340.9536 0.0000 0.0000 1749.0085 -9433.7099 303.0789 -11182.7184 -9433.3620 303.0789 177.2345 217.8031 43459.2911 177.2345 217.8031
ENERGY: 100000 0.0000 0.0000 0.0000 0.0000 -14046.3360 2414.1978 0.0000 0.0000 171.5094 -11460.6288 29.7202 -11632.1382 -11459.9377 30.8381 -425.2445 -376.3685 29237.9952 4.3936 4.3857
TCL: Running 100000 steps at 60 kelvin.
TCL: Setting parameter langevinTemp to 60
TCL: Running for 100000 steps
ETITLE: TS BOND ANGLE DIHED IMPRP ELECT VDW BOUNDARY MISC KINETIC TOTAL TEMP POTENTIAL TOTAL3 TEMPAVG PRESSURE GPRESSURE VOLUME PRESSAVG GPRESSAVG
ENERGY: 100000 0.0000 0.0000 0.0000 0.0000 -14046.3360 2414.1978 0.0000 0.0000 171.4234 -11460.7148 29.7053 -11632.1382 -11460.3593 29.7053 -420.6388 -376.2855 29237.9952 -420.6388 -376.2855
ENERGY: 200000 0.0000 0.0000 0.0000 0.0000 -13919.4417 2397.5942 0.0000 0.0000 334.1430 -11187.7046 57.9023 -11521.8476 -11187.5744 59.9691 -14.5768 34.2817 28876.1306 3.5075 3.4807
TCL: Running 100000 steps at 90 kelvin.
TCL: Setting parameter langevinTemp to 90
TCL: Running for 100000 steps
ETITLE: TS BOND ANGLE DIHED IMPRP ELECT VDW BOUNDARY MISC KINETIC TOTAL TEMP POTENTIAL TOTAL3 TEMPAVG PRESSURE GPRESSURE VOLUME PRESSAVG GPRESSAVG
ENERGY: 200000 0.0000 0.0000 0.0000 0.0000 -13919.4417 2397.5942 0.0000 0.0000 333.9638 -11187.8838 57.8713 -11521.8476 -11187.2283 57.8713 -15.5411 34.3266 28876.1306 -15.5411 34.3266
ENERGY: 300000 0.0000 0.0000 0.0000 0.0000 -13778.3480 2310.8197 0.0000 0.0000 524.1605 -10943.3678 90.8297 -11467.5283 -10942.4946 89.9624 -418.0170 -383.8368 28673.1391 6.2688 6.2020
TCL: Running 100000 steps at 120 kelvin.
TCL: Setting parameter langevinTemp to 120
TCL: Running for 100000 steps
ETITLE: TS BOND ANGLE DIHED IMPRP ELECT VDW BOUNDARY MISC KINETIC TOTAL TEMP POTENTIAL TOTAL3 TEMPAVG PRESSURE GPRESSURE VOLUME PRESSAVG GPRESSAVG
ENERGY: 300000 0.0000 0.0000 0.0000 0.0000 -13778.3480 2310.8197 0.0000 0.0000 523.8865 -10943.6418 90.7823 -11467.5283 -10942.3857 90.7823 -430.2240 -384.8445 28673.1391 -430.2240 -384.8445
ENERGY: 400000 0.0000 0.0000 0.0000 0.0000 -13719.5343 2396.3337 0.0000 0.0000 688.3848 -10634.8158 119.2875 -11323.2006 -10633.8292 119.9098 869.9726 916.7415 28435.4934 4.0907 3.9763
TCL: Running 100000 steps at 150 kelvin.
TCL: Setting parameter langevinTemp to 150
TCL: Running for 100000 steps
ETITLE: TS BOND ANGLE DIHED IMPRP ELECT VDW BOUNDARY MISC KINETIC TOTAL TEMP POTENTIAL TOTAL3 TEMPAVG PRESSURE GPRESSURE VOLUME PRESSAVG GPRESSAVG
ENERGY: 400000 0.0000 0.0000 0.0000 0.0000 -13719.5343 2396.3337 0.0000 0.0000 688.0411 -10635.1596 119.2280 -11323.2006 -10633.8020 119.2280 867.0757 916.2571 28435.4934 867.0757 916.2571
ENERGY: 500000 0.0000 0.0000 0.0000 0.0000 -13358.5982 2164.9077 0.0000 0.0000 846.1685 -10347.5219 146.6293 -11193.6905 -10345.7201 149.9682 -472.7351 -440.2336 28682.6077 5.7814 5.6094
TCL: Running 100000 steps at 180 kelvin.
TCL: Setting parameter langevinTemp to 180
TCL: Running for 100000 steps
ETITLE: TS BOND ANGLE DIHED IMPRP ELECT VDW BOUNDARY MISC KINETIC TOTAL TEMP POTENTIAL TOTAL3 TEMPAVG PRESSURE GPRESSURE VOLUME PRESSAVG GPRESSAVG
ENERGY: 500000 0.0000 0.0000 0.0000 0.0000 -13358.5982 2164.9077 0.0000 0.0000 845.7269 -10347.9636 146.5527 -11193.6905 -10346.3376 146.5527 -496.9137 -441.1090 28682.6077 -496.9137 -441.1090
ENERGY: 600000 0.0000 0.0000 0.0000 0.0000 -12880.6254 1989.8216 0.0000 0.0000 1035.7416 -9855.0622 179.4796 -10890.8038 -9852.9972 179.7938 -894.8504 -819.9721 28916.4324 2.7241 2.8664
TCL: Running 100000 steps at 210 kelvin.
TCL: Setting parameter langevinTemp to 210
TCL: Running for 100000 steps
ETITLE: TS BOND ANGLE DIHED IMPRP ELECT VDW BOUNDARY MISC KINETIC TOTAL TEMP POTENTIAL TOTAL3 TEMPAVG PRESSURE GPRESSURE VOLUME PRESSAVG GPRESSAVG
ENERGY: 600000 0.0000 0.0000 0.0000 0.0000 -12880.6254 1989.8216 0.0000 0.0000 1035.2354 -9855.5684 179.3919 -10890.8038 -9853.6760 179.3919 -885.4141 -820.0367 28916.4324 -885.4141 -820.0367
ENERGY: 700000 0.0000 0.0000 0.0000 0.0000 -12426.7808 1970.6580 0.0000 0.0000 1194.7105 -9261.4123 207.0268 -10456.1229 -9260.6097 209.5659 788.6774 847.5758 28410.0962 3.5495 3.2330
TCL: Running 100000 steps at 240 kelvin.
TCL: Setting parameter langevinTemp to 240
TCL: Running for 100000 steps
ETITLE: TS BOND ANGLE DIHED IMPRP ELECT VDW BOUNDARY MISC KINETIC TOTAL TEMP POTENTIAL TOTAL3 TEMPAVG PRESSURE GPRESSURE VOLUME PRESSAVG GPRESSAVG
ENERGY: 700000 0.0000 0.0000 0.0000 0.0000 -12426.7808 1970.6580 0.0000 0.0000 1194.0901 -9262.0328 206.9192 -10456.1229 -9260.3445 206.9192 787.7909 846.4957 28410.0962 787.7909 846.4957
ENERGY: 800000 0.0000 0.0000 0.0000 0.0000 -11659.8324 1705.4625 0.0000 0.0000 1370.0210 -8584.3488 237.4056 -9954.3699 -8581.2161 239.6472 157.3275 298.0439 28811.9022 4.6126 4.4582
TCL: Running 100000 steps at 270 kelvin.
TCL: Setting parameter langevinTemp to 270
TCL: Running for 100000 steps
ETITLE: TS BOND ANGLE DIHED IMPRP ELECT VDW BOUNDARY MISC KINETIC TOTAL TEMP POTENTIAL TOTAL3 TEMPAVG PRESSURE GPRESSURE VOLUME PRESSAVG GPRESSAVG
ENERGY: 800000 0.0000 0.0000 0.0000 0.0000 -11659.8324 1705.4625 0.0000 0.0000 1369.3247 -8585.0451 237.2850 -9954.3699 -8582.9874 237.2850 209.3259 296.7974 28811.9022 209.3259 296.7974
ENERGY: 900000 0.0000 0.0000 0.0000 0.0000 -11115.4114 1502.5927 0.0000 0.0000 1587.6005 -8025.2182 275.1091 -9612.8187 -8021.5321 270.3253 -483.6881 -332.8790 29545.3605 3.7621 3.4875
TCL: Running 1000000 steps at 300 kelvin.
TCL: Setting parameter langevinTemp to 300
TCL: Running for 1000000 steps
ETITLE: TS BOND ANGLE DIHED IMPRP ELECT VDW BOUNDARY MISC KINETIC TOTAL TEMP POTENTIAL TOTAL3 TEMPAVG PRESSURE GPRESSURE VOLUME PRESSAVG GPRESSAVG
ENERGY: 900000 0.0000 0.0000 0.0000 0.0000 -11115.4114 1502.5927 0.0000 0.0000 1586.7748 -8026.0439 274.9660 -9612.8187 -8023.5896 274.9660 -404.8957 -333.4646 29545.3605 -404.8957 -333.4646
ENERGY: 1100000 0.0000 0.0000 0.0000 0.0000 -10658.4031 1413.9648 0.0000 0.0000 1699.1465 -7545.2919 294.4385 -9244.4384 -7542.8858 299.9090 -357.7485 -283.5992 30262.8654 3.1247 3.0081
ENERGY: 1300000 0.0000 0.0000 0.0000 0.0000 -10566.8635 1423.4910 0.0000 0.0000 1678.9303 -7464.4422 290.9353 -9143.3725 -7461.7670 300.6778 51.4621 60.7790 30423.0233 2.8593 2.7852
ENERGY: 1500000 0.0000 0.0000 0.0000 0.0000 -10726.3735 1501.0812 0.0000 0.0000 1732.0648 -7493.2275 300.1428 -9225.2923 -7490.7858 299.9854 552.2717 624.6304 30195.5508 4.3309 4.2551
ENERGY: 1700000 0.0000 0.0000 0.0000 0.0000 -10573.0176 1384.8386 0.0000 0.0000 1696.5134 -7491.6656 293.9822 -9188.1790 -7487.9889 300.2824 -155.7846 -60.3369 29745.2790 3.4885 3.2795
ENERGY: 1900000 0.0000 0.0000 0.0000 0.0000 -10502.1375 1361.6444 0.0000 0.0000 1703.5738 -7436.9193 295.2057 -9140.4931 -7435.6748 299.9069 -678.9000 -580.2615 30648.3420 3.3895 3.0698
TCL: Exiting due to exit command.
