Info: SIMULATION PARAMETERS:
Info: TIMESTEP               2
Info: NUMBER OF STEPS        0
Info: STEPS PER CYCLE        10
Info: PERIODIC CELL BASIS 1  40.176 0 0
Info: PERIODIC CELL BASIS 2  0 36.451 0
Info: PERIODIC CELL BASIS 3  0 0 30.222
Info: PERIODIC CELL CENTER   0 0 0
Info: WRAPPING WATERS AROUND PERIODIC BOUNDARIES ON OUTPUT.
Info: WRAPPING ALL CLUSTERS AROUND PERIODIC BOUNDARIES ON OUTPUT.
Info: FIRST LDB TIMESTEP     50
Info: LAST LDB TIMESTEP     -1
Info: HOM BACKGROUND SCALING 1
Info: PME BACKGROUND SCALING 1
Info: MIN ATOMS PER PATCH    40
Info: EMPTY PATCH LOAD       40 ATOMS
Info: INITIAL TEMPERATURE    300
Info: CENTER OF MASS MOVING INITIALLY? NO
Info: DIELECTRIC             1
Info: EXCLUDE                SCALED ONE-FOUR
Info: 1-4 ELECTROSTATICS SCALED BY 0.833333
Info: MODIFIED 1-4 VDW PARAMETERS WILL BE USED
Info: DCD FILENAME           mobley_9821936_equil.dcd
Info: DCD FREQUENCY          100000
Info: DCD FIRST STEP         100000
Info: DCD FILE WILL CONTAIN UNIT CELL DATA
Info: XST FILENAME           mobley_9821936_equil.xst
Info: XST FREQUENCY          100000
Info: NO VELOCITY DCD OUTPUT
Info: NO FORCE DCD OUTPUT
Info: OUTPUT FILENAME        mobley_9821936_equil
Info: BINARY OUTPUT FILES WILL BE USED
Info: RESTART FILENAME       mobley_9821936_equil.restart
Info: RESTART FREQUENCY      100000
Info: BINARY RESTART FILES WILL BE USED
Info: CUTOFF                 9
Info: PAIRLIST DISTANCE      11
Info: PAIRLIST SHRINK RATE   0.01
Info: PAIRLIST GROW RATE     0.01
Info: PAIRLIST TRIGGER       0.3
Info: PAIRLISTS PER CYCLE    2
Info: PAIRLISTS ENABLED
Info: MARGIN                 8
Info: HYDROGEN GROUP CUTOFF  2.5
Info: PATCH DIMENSION        21.5
Info: ENERGY OUTPUT STEPS    100000
Info: ENERGY EVALUATION STEPS    100000
Info: OUTPUT ENERGY PRECISION 4
Info: CROSSTERM ENERGY INCLUDED IN DIHEDRAL
Info: TIMING OUTPUT STEPS    1000000
Info: PRESSURE OUTPUT STEPS  100000
Info: FIXED ATOMS ACTIVE
Info: LANGEVIN DYNAMICS ACTIVE
Info: LANGEVIN TEMPERATURE   30
Info: LANGEVIN USING BBK INTEGRATOR
Info: LANGEVIN DAMPING COEFFICIENT IS 1 INVERSE PS
Info: LANGEVIN DYNAMICS APPLIED TO HYDROGENS
Info: LANGEVIN PISTON PRESSURE CONTROL ACTIVE
Info:        TARGET PRESSURE IS 1.01325 BAR
Info:     OSCILLATION PERIOD IS 50 FS
Info:             DECAY TIME IS 25 FS
Info:     PISTON TEMPERATURE IS 300 K
Info:       PRESSURE CONTROL IS GROUP-BASED
Info:    INITIAL STRAIN RATE IS 0 0 0
Info:       CELL FLUCTUATION IS ISOTROPIC
Info: PARTICLE MESH EWALD (PME) ACTIVE
Info: PME TOLERANCE               1e-06
Info: PME EWALD COEFFICIENT       0.348832
Info: PME INTERPOLATION ORDER     4
Info: PME GRID DIMENSIONS         44 40 32
Info: PME MAXIMUM GRID SPACING    1
Info: FULL ELECTROSTATIC EVALUATION FREQUENCY      2
Info: USING VERLET I (r-RESPA) MTS SCHEME.
Info: C1 SPLITTING OF LONG RANGE ELECTROSTATICS
Info: PLACING ATOMS IN PATCHES BY HYDROGEN GROUPS
Info: RIGID BONDS TO HYDROGEN : ALL
Info:         ERROR TOLERANCE : 1e-08
Info:          MAX ITERATIONS : 100
Info: RIGID WATER USING SETTLE ALGORITHM
Info: RANDOM NUMBER SEED     1743764887
Info: USE HYDROGEN BONDS?    NO
Info: Using AMBER format force field!
Info: AMBER PARM FILE        mobley_9821936.prmtop
Info: COORDINATE PDB         mobley_9821936.pdb
Info: Exclusions will be read from PARM file!
Info: SCNB (VDW SCALING)     2
Info: USING ARITHMETIC MEAN TO COMBINE L-J SIGMA PARAMETERS
Info: BINARY COORDINATES     mobley_9821936_min.coor
Info: SUMMARY OF PARAMETERS:
Info: 5 BONDS
Info: 4 ANGLES
Info:   4 HARMONIC
Info:   0 COSINE-BASED
Info: 3 DIHEDRAL
Info: 0 IMPROPER
Info: 0 CROSSTERM
Info: 0 VDW
Info: 15 VDW_PAIRS
Info: 0 NBTHOLE_PAIRS
Info: STRUCTURE SUMMARY:
Info: 2914 ATOMS
Info: 2916 BONDS
Info: 38 ANGLES
Info: 68 DIHEDRALS
Info: 0 IMPROPERS
Info: 0 CROSSTERMS
Info: 3001 EXCLUSIONS
Info: 22 FIXED ATOMS
Info: 2892 RIGID BONDS
Info: 0 RIGID BONDS BETWEEN FIXED ATOMS
Info: 5784 DEGREES OF FREEDOM
Info: 986 HYDROGEN GROUPS
Info: 3 ATOMS IN LARGEST HYDROGEN GROUP
Info: 986 MIGRATION GROUPS
Info: 3 ATOMS IN LARGEST MIGRATION GROUP
Info: 22 HYDROGEN GROUPS WITH ALL ATOMS FIXED
Info: TOTAL MASS = 17827.1 amu
Info: TOTAL CHARGE = 9.9998e-05 e
Info: MASS DENSITY = 0.66887 g/cm^3
Info: ATOM DENSITY = 0.0658401 atoms/A^3
Info: ADDED 0 IMPLICIT EXCLUSIONS
Info: NONBONDED TABLE R-SQUARED SPACING: 0.0625
Info: NONBONDED TABLE SIZE: 705 POINTS
Info: REMOVING COM VELOCITY -0.139711 -0.0763821 -0.0711359
TCL: Running for 100000 steps
ETITLE: TS BOND ANGLE DIHED IMPRP ELECT VDW BOUNDARY MISC KINETIC TOTAL TEMP POTENTIAL TOTAL3 TEMPAVG PRESSURE GPRESSURE VOLUME PRESSAVG GPRESSAVG
ENERGY: 0 0.0000 0.0000 0.0000 0.0000 -13420.9551 2314.5588 0.0000 0.0000 1734.7466 -9371.6497 301.8548 -11106.3963 -9371.2839 301.8548 245.1080 275.8310 44258.7704 245.1080 275.8310
ENERGY: 100000 0.0000 0.0000 0.0000 0.0000 -13787.5854 2229.1031 0.0000 0.0000 173.6731 -11384.8092 30.2200 -11558.4823 -11384.1581 30.9190 -1455.0816 -1391.1576 29191.9886 4.4072 4.3568
TCL: Running 100000 steps at 60 kelvin.
TCL: Setting parameter langevinTemp to 60
TCL: Running for 100000 steps
ETITLE: TS BOND ANGLE DIHED IMPRP ELECT VDW BOUNDARY MISC KINETIC TOTAL TEMP POTENTIAL TOTAL3 TEMPAVG PRESSURE GPRESSURE VOLUME PRESSAVG GPRESSAVG
ENERGY: 100000 0.0000 0.0000 0.0000 0.0000 -13787.5854 2229.1031 0.0000 0.0000 173.5894 -11384.8929 30.2054 -11558.4823 -11384.4761 30.2054 -1444.8396 -1391.1785 29191.9886 -1444.8396 -1391.1785
ENERGY: 200000 0.0000 0.0000 0.0000 0.0000 -13754.8394 2279.0422 0.0000 0.0000 348.5082 -11127.2890 60.6422 -11475.7972 -11126.0882 60.0113 -502.8152 -469.6776 28680.5921 3.2314 3.2314
TCL: Running 100000 steps at 90 kelvin.
TCL: Setting parameter langevinTemp to 90
TCL: Running for 100000 steps
ETITLE: TS BOND ANGLE DIHED IMPRP ELECT VDW BOUNDARY MISC KINETIC TOTAL TEMP POTENTIAL TOTAL3 TEMPAVG PRESSURE GPRESSURE VOLUME PRESSAVG GPRESSAVG
ENERGY: 200000 0.0000 0.0000 0.0000 0.0000 -13754.8394 2279.0422 0.0000 0.0000 348.3382 -11127.4591 60.6126 -11475.7972 -11126.8261 60.6126 -522.5978 -469.1132 28680.5921 -522.5978 -469.1132
ENERGY: 300000 0.0000 0.0000 0.0000 0.0000 -13715.6823 2325.1800 0.0000 0.0000 535.4628 -10855.0395 93.1733 -11390.5024 -10854.0242 89.8079 251.8748 298.3855 28289.6623 2.2826 2.2639
TCL: Running 100000 steps at 120 kelvin.
TCL: Setting parameter langevinTemp to 120
TCL: Running for 100000 steps
ETITLE: TS BOND ANGLE DIHED IMPRP ELECT VDW BOUNDARY MISC KINETIC TOTAL TEMP POTENTIAL TOTAL3 TEMPAVG PRESSURE GPRESSURE VOLUME PRESSAVG GPRESSAVG
ENERGY: 300000 0.0000 0.0000 0.0000 0.0000 -13715.6823 2325.1800 0.0000 0.0000 535.2102 -10855.2922 93.1293 -11390.5024 -10853.9542 93.1293 253.2163 298.5603 28289.6623 253.2163 298.5603
ENERGY: 400000 0.0000 0.0000 0.0000 0.0000 -13696.5946 2385.0871 0.0000 0.0000 677.8321 -10633.6753 117.9463 -11311.5075 -10631.1536 120.0876 836.0364 900.1810 28355.5011 4.1872 4.1110
TCL: Running 100000 steps at 150 kelvin.
TCL: Setting parameter langevinTemp to 150
TCL: Running for 100000 steps
ETITLE: TS BOND ANGLE DIHED IMPRP ELECT VDW BOUNDARY MISC KINETIC TOTAL TEMP POTENTIAL TOTAL3 TEMPAVG PRESSURE GPRESSURE VOLUME PRESSAVG GPRESSAVG
ENERGY: 400000 0.0000 0.0000 0.0000 0.0000 -13696.5946 2385.0871 0.0000 0.0000 677.4840 -10634.0234 117.8857 -11311.5075 -10632.6479 117.8857 849.4332 900.4171 28355.5011 849.4332 900.4171
ENERGY: 500000 0.0000 0.0000 0.0000 0.0000 -13288.4256 2111.0448 0.0000 0.0000 851.2102 -10326.1706 148.1150 -11177.3808 -10323.0871 150.2039 -977.9300 -948.1232 28810.0574 3.7299 3.7127
TCL: Running 100000 steps at 180 kelvin.
TCL: Setting parameter langevinTemp to 180
TCL: Running for 100000 steps
ETITLE: TS BOND ANGLE DIHED IMPRP ELECT VDW BOUNDARY MISC KINETIC TOTAL TEMP POTENTIAL TOTAL3 TEMPAVG PRESSURE GPRESSURE VOLUME PRESSAVG GPRESSAVG
ENERGY: 500000 0.0000 0.0000 0.0000 0.0000 -13288.4256 2111.0448 0.0000 0.0000 850.7776 -10326.6032 148.0397 -11177.3808 -10324.8288 148.0397 -1007.9655 -947.1924 28810.0574 -1007.9655 -947.1924
ENERGY: 600000 0.0000 0.0000 0.0000 0.0000 -13049.1014 2203.5675 0.0000 0.0000 1019.8147 -9825.7192 177.4530 -10845.5339 -9824.1791 180.0864 1067.1560 1108.0486 28492.9355 3.3646 3.2557
TCL: Running 100000 steps at 210 kelvin.
TCL: Setting parameter langevinTemp to 210
TCL: Running for 100000 steps
ETITLE: TS BOND ANGLE DIHED IMPRP ELECT VDW BOUNDARY MISC KINETIC TOTAL TEMP POTENTIAL TOTAL3 TEMPAVG PRESSURE GPRESSURE VOLUME PRESSAVG GPRESSAVG
ENERGY: 600000 0.0000 0.0000 0.0000 0.0000 -13049.1014 2203.5675 0.0000 0.0000 1019.2896 -9826.2443 177.3616 -10845.5339 -9824.1945 177.3616 1037.6393 1107.7542 28492.9355 1037.6393 1107.7542
ENERGY: 700000 0.0000 0.0000 0.0000 0.0000 -12193.3457 1854.5110 0.0000 0.0000 1226.4915 -9112.3432 213.4158 -10338.8347 -9109.6239 210.1562 159.7277 321.8359 28498.7019 4.7583 4.5809
TCL: Running 100000 steps at 240 kelvin.
TCL: Setting parameter langevinTemp to 240
TCL: Running for 100000 steps
ETITLE: TS BOND ANGLE DIHED IMPRP ELECT VDW BOUNDARY MISC KINETIC TOTAL TEMP POTENTIAL TOTAL3 TEMPAVG PRESSURE GPRESSURE VOLUME PRESSAVG GPRESSAVG
ENERGY: 700000 0.0000 0.0000 0.0000 0.0000 -12193.3457 1854.5110 0.0000 0.0000 1225.8941 -9112.9406 213.3119 -10338.8347 -9111.1959 213.3119 249.1465 321.3128 28498.7019 249.1465 321.3128
ENERGY: 800000 0.0000 0.0000 0.0000 0.0000 -11557.6124 1621.8542 0.0000 0.0000 1402.6352 -8533.1230 244.0658 -9935.7582 -8529.1310 240.2018 -441.3458 -380.0781 29045.6189 4.0813 4.1372
TCL: Running 100000 steps at 270 kelvin.
TCL: Setting parameter langevinTemp to 270
TCL: Running for 100000 steps
ETITLE: TS BOND ANGLE DIHED IMPRP ELECT VDW BOUNDARY MISC KINETIC TOTAL TEMP POTENTIAL TOTAL3 TEMPAVG PRESSURE GPRESSURE VOLUME PRESSAVG GPRESSAVG
ENERGY: 800000 0.0000 0.0000 0.0000 0.0000 -11557.6124 1621.8542 0.0000 0.0000 1401.9664 -8533.7918 243.9494 -9935.7582 -8531.4952 243.9494 -466.6352 -379.5684 29045.6189 -466.6352 -379.5684
ENERGY: 900000 0.0000 0.0000 0.0000 0.0000 -10998.2669 1466.8061 0.0000 0.0000 1607.8989 -7923.5619 279.7827 -9531.4608 -7920.9966 270.7058 -575.6269 -465.3455 29418.2776 3.2168 3.2288
TCL: Running 1000000 steps at 300 kelvin.
TCL: Setting parameter langevinTemp to 300
TCL: Running for 1000000 steps
ETITLE: TS BOND ANGLE DIHED IMPRP ELECT VDW BOUNDARY MISC KINETIC TOTAL TEMP POTENTIAL TOTAL3 TEMPAVG PRESSURE GPRESSURE VOLUME PRESSAVG GPRESSAVG
ENERGY: 900000 0.0000 0.0000 0.0000 0.0000 -10998.2669 1466.8061 0.0000 0.0000 1607.0975 -7924.3633 279.6432 -9531.4608 -7921.7590 279.6432 -546.4266 -466.8040 29418.2776 -546.4266 -466.8040
ENERGY: 1100000 0.0000 0.0000 0.0000 0.0000 -10404.0179 1355.0444 0.0000 0.0000 1760.4520 -7288.5215 306.3277 -9048.9735 -7283.8220 300.7641 -236.7902 -186.7687 30710.6921 3.5509 3.4894
ENERGY: 1300000 0.0000 0.0000 0.0000 0.0000 -10449.4197 1359.3382 0.0000 0.0000 1689.9710 -7400.1105 294.0637 -9090.0815 -7398.1098 300.3892 -318.8455 -253.1316 30603.7538 3.8208 3.8867
ENERGY: 1500000 0.0000 0.0000 0.0000 0.0000 -10481.4944 1376.5496 0.0000 0.0000 1765.4367 -7339.5081 307.1951 -9104.9448 -7335.8703 299.4908 104.8779 169.4054 30251.4114 3.3740 3.4024
ENERGY: 1700000 0.0000 0.0000 0.0000 0.0000 -10356.5189 1297.4268 0.0000 0.0000 1704.6051 -7354.4870 296.6101 -9059.0921 -7350.5473 299.8474 -833.1452 -753.5926 30619.9220 3.8912 3.9936
ENERGY: 1900000 0.0000 0.0000 0.0000 0.0000 -10450.5425 1366.8002 0.0000 0.0000 1730.4958 -7353.2465 301.1152 -9083.7423 -7351.3376 299.7059 -25.5333 50.1183 30089.3471 2.8819 2.9555
TCL: Exiting due to exit command.
