Info: SIMULATION PARAMETERS:
Info: TIMESTEP               2
Info: NUMBER OF STEPS        0
Info: STEPS PER CYCLE        10
Info: PERIODIC CELL BASIS 1  36.005 0 0
Info: PERIODIC CELL BASIS 2  0 35.779 0
Info: PERIODIC CELL BASIS 3  0 0 34.471
Info: PERIODIC CELL CENTER   0 0 0
Info: WRAPPING WATERS AROUND PERIODIC BOUNDARIES ON OUTPUT.
Info: WRAPPING ALL CLUSTERS AROUND PERIODIC BOUNDARIES ON OUTPUT.
Info: FIRST LDB TIMESTEP     50
Info: LAST LDB TIMESTEP     -1
Info: HOM BACKGROUND SCALING 1
Info: PME BACKGROUND SCALING 1
Info: MIN ATOMS PER PATCH    40
Info: EMPTY PATCH LOAD       40 ATOMS
Info: INITIAL TEMPERATURE    300
Info: CENTER OF MASS MOVING INITIALLY? NO
Info: DIELECTRIC             1
Info: EXCLUDE                SCALED ONE-FOUR
Info: 1-4 ELECTROSTATICS SCALED BY 0.833333
Info: MODIFIED 1-4 VDW PARAMETERS WILL BE USED
Info: DCD FILENAME           mobley_6309289_equil.dcd
Info: DCD FREQUENCY          100000
Info: DCD FIRST STEP         100000
Info: DCD FILE WILL CONTAIN UNIT CELL DATA
Info: XST FILENAME           mobley_6309289_equil.xst
Info: XST FREQUENCY          100000
Info: NO VELOCITY DCD OUTPUT
Info: NO FORCE DCD OUTPUT
Info: OUTPUT FILENAME        mobley_6309289_equil
Info: BINARY OUTPUT FILES WILL BE USED
Info: RESTART FILENAME       mobley_6309289_equil.restart
Info: RESTART FREQUENCY      100000
Info: BINARY RESTART FILES WILL BE USED
Info: CUTOFF                 9
Info: PAIRLIST DISTANCE      11
Info: PAIRLIST SHRINK RATE   0.01
Info: PAIRLIST GROW RATE     0.01
Info: PAIRLIST TRIGGER       0.3
Info: PAIRLISTS PER CYCLE    2
Info: PAIRLISTS ENABLED
Info: MARGIN                 8
Info: HYDROGEN GROUP CUTOFF  2.5
Info: PATCH DIMENSION        21.5
Info: ENERGY OUTPUT STEPS    100000
Info: ENERGY EVALUATION STEPS    100000
Info: OUTPUT ENERGY PRECISION 4
Info: CROSSTERM ENERGY INCLUDED IN DIHEDRAL
Info: TIMING OUTPUT STEPS    1000000
Info: PRESSURE OUTPUT STEPS  100000
Info: FIXED ATOMS ACTIVE
Info: LANGEVIN DYNAMICS ACTIVE
Info: LANGEVIN TEMPERATURE   30
Info: LANGEVIN USING BBK INTEGRATOR
Info: LANGEVIN DAMPING COEFFICIENT IS 1 INVERSE PS
Info: LANGEVIN DYNAMICS APPLIED TO HYDROGENS
Info: LANGEVIN PISTON PRESSURE CONTROL ACTIVE
Info:        TARGET PRESSURE IS 1.01325 BAR
Info:     OSCILLATION PERIOD IS 50 FS
Info:             DECAY TIME IS 25 FS
Info:     PISTON TEMPERATURE IS 300 K
Info:       PRESSURE CONTROL IS GROUP-BASED
Info:    INITIAL STRAIN RATE IS 0 0 0
Info:       CELL FLUCTUATION IS ISOTROPIC
Info: PARTICLE MESH EWALD (PME) ACTIVE
Info: PME TOLERANCE               1e-06
Info: PME EWALD COEFFICIENT       0.348832
Info: PME INTERPOLATION ORDER     4
Info: PME GRID DIMENSIONS         40 36 36
Info: PME MAXIMUM GRID SPACING    1
Info: FULL ELECTROSTATIC EVALUATION FREQUENCY      2
Info: USING VERLET I (r-RESPA) MTS SCHEME.
Info: C1 SPLITTING OF LONG RANGE ELECTROSTATICS
Info: PLACING ATOMS IN PATCHES BY HYDROGEN GROUPS
Info: RIGID BONDS TO HYDROGEN : ALL
Info:         ERROR TOLERANCE : 1e-08
Info:          MAX ITERATIONS : 100
Info: RIGID WATER USING SETTLE ALGORITHM
Info: RANDOM NUMBER SEED     1743739720
Info: USE HYDROGEN BONDS?    NO
Info: Using AMBER format force field!
Info: AMBER PARM FILE        mobley_6309289.prmtop
Info: COORDINATE PDB         mobley_6309289.pdb
Info: Exclusions will be read from PARM file!
Info: SCNB (VDW SCALING)     2
Info: USING ARITHMETIC MEAN TO COMBINE L-J SIGMA PARAMETERS
Info: BINARY COORDINATES     mobley_6309289_min.coor
Info: SUMMARY OF PARAMETERS:
Info: 7 BONDS
Info: 9 ANGLES
Info: 8 DIHEDRAL
Info: 0 IMPROPER
Info: 0 CROSSTERM
Info: 0 VDW
Info: 28 VDW_PAIRS
Info: 0 NBTHOLE_PAIRS
Info: STRUCTURE SUMMARY:
Info: 2921 ATOMS
Info: 2921 BONDS
Info: 33 ANGLES
Info: 54 DIHEDRALS
Info: 0 IMPROPERS
Info: 0 CROSSTERMS
Info: 2999 EXCLUSIONS
Info: 17 FIXED ATOMS
Info: 2915 RIGID BONDS
Info: 11 RIGID BONDS BETWEEN FIXED ATOMS
Info: 5808 DEGREES OF FREEDOM
Info: 974 HYDROGEN GROUPS
Info: 3 ATOMS IN LARGEST HYDROGEN GROUP
Info: 974 MIGRATION GROUPS
Info: 3 ATOMS IN LARGEST MIGRATION GROUP
Info: 6 HYDROGEN GROUPS WITH ALL ATOMS FIXED
Info: TOTAL MASS = 17524.6 amu
Info: TOTAL CHARGE = 0.000299975 e
Info: MASS DENSITY = 0.655335 g/cm^3
Info: ATOM DENSITY = 0.0657789 atoms/A^3
Info: ADDED 0 IMPLICIT EXCLUSIONS
Info: NONBONDED TABLE R-SQUARED SPACING: 0.0625
Info: NONBONDED TABLE SIZE: 705 POINTS
Info: REMOVING COM VELOCITY -0.192016 0.0861484 -0.316468
TCL: Running for 100000 steps
ETITLE: TS BOND ANGLE DIHED IMPRP ELECT VDW BOUNDARY MISC KINETIC TOTAL TEMP POTENTIAL TOTAL3 TEMPAVG PRESSURE GPRESSURE VOLUME PRESSAVG GPRESSAVG
ENERGY: 0 0.0000 0.0000 0.0000 0.0000 -13547.0768 2403.5827 0.0000 0.0000 1818.0702 -9325.4239 315.0463 -11143.4941 -9325.0480 315.0463 673.7010 702.2917 44406.3314 673.7010 702.2917
ENERGY: 100000 0.0000 0.0000 0.0000 0.0000 -14037.0632 2372.6758 0.0000 0.0000 174.7435 -11489.6440 30.2806 -11664.3875 -11489.1626 30.9658 -496.9040 -447.4906 28650.8902 4.2749 4.2796
TCL: Running 100000 steps at 60 kelvin.
TCL: Setting parameter langevinTemp to 60
TCL: Running for 100000 steps
ETITLE: TS BOND ANGLE DIHED IMPRP ELECT VDW BOUNDARY MISC KINETIC TOTAL TEMP POTENTIAL TOTAL3 TEMPAVG PRESSURE GPRESSURE VOLUME PRESSAVG GPRESSAVG
ENERGY: 100000 0.0000 0.0000 0.0000 0.0000 -14037.0632 2372.6758 0.0000 0.0000 174.6569 -11489.7305 30.2656 -11664.3875 -11489.4437 30.2656 -487.8777 -447.5374 28650.8902 -487.8777 -447.5374
ENERGY: 200000 0.0000 0.0000 0.0000 0.0000 -13960.1708 2388.3484 0.0000 0.0000 346.8067 -11225.0156 60.0968 -11571.8224 -11224.3484 59.9155 75.5364 122.9584 28508.5323 5.4469 5.4435
TCL: Running 100000 steps at 90 kelvin.
TCL: Setting parameter langevinTemp to 90
TCL: Running for 100000 steps
ETITLE: TS BOND ANGLE DIHED IMPRP ELECT VDW BOUNDARY MISC KINETIC TOTAL TEMP POTENTIAL TOTAL3 TEMPAVG PRESSURE GPRESSURE VOLUME PRESSAVG GPRESSAVG
ENERGY: 200000 0.0000 0.0000 0.0000 0.0000 -13960.1708 2388.3484 0.0000 0.0000 346.6310 -11225.1913 60.0663 -11571.8224 -11224.5701 60.0663 88.2207 122.8345 28508.5323 88.2207 122.8345
ENERGY: 300000 0.0000 0.0000 0.0000 0.0000 -13860.0792 2353.6435 0.0000 0.0000 519.1425 -10987.2931 89.9602 -11506.4356 -10985.6659 89.9480 -17.8286 33.8389 28511.8152 3.0185 3.1000
TCL: Running 100000 steps at 120 kelvin.
TCL: Setting parameter langevinTemp to 120
TCL: Running for 100000 steps
ETITLE: TS BOND ANGLE DIHED IMPRP ELECT VDW BOUNDARY MISC KINETIC TOTAL TEMP POTENTIAL TOTAL3 TEMPAVG PRESSURE GPRESSURE VOLUME PRESSAVG GPRESSAVG
ENERGY: 300000 0.0000 0.0000 0.0000 0.0000 -13860.0792 2353.6435 0.0000 0.0000 518.8819 -10987.5537 89.9150 -11506.4356 -10986.4403 89.9150 -18.7547 34.0661 28511.8152 -18.7547 34.0661
ENERGY: 400000 0.0000 0.0000 0.0000 0.0000 -13662.6423 2277.0056 0.0000 0.0000 689.4676 -10696.1692 119.4752 -11385.6368 -10694.1534 119.6693 20.3110 86.5157 28075.9808 3.7548 3.6371
TCL: Running 100000 steps at 150 kelvin.
TCL: Setting parameter langevinTemp to 150
TCL: Running for 100000 steps
ETITLE: TS BOND ANGLE DIHED IMPRP ELECT VDW BOUNDARY MISC KINETIC TOTAL TEMP POTENTIAL TOTAL3 TEMPAVG PRESSURE GPRESSURE VOLUME PRESSAVG GPRESSAVG
ENERGY: 400000 0.0000 0.0000 0.0000 0.0000 -13662.6423 2277.0056 0.0000 0.0000 689.1231 -10696.5137 119.4155 -11385.6368 -10695.1912 119.4155 23.7366 86.8865 28075.9808 23.7366 86.8865
ENERGY: 500000 0.0000 0.0000 0.0000 0.0000 -13377.0100 2192.5099 0.0000 0.0000 856.2648 -10328.2352 148.3788 -11184.5000 -10325.7326 150.0586 -189.4773 -124.4277 28459.6554 6.1179 6.0860
TCL: Running 100000 steps at 180 kelvin.
TCL: Setting parameter langevinTemp to 180
TCL: Running for 100000 steps
ETITLE: TS BOND ANGLE DIHED IMPRP ELECT VDW BOUNDARY MISC KINETIC TOTAL TEMP POTENTIAL TOTAL3 TEMPAVG PRESSURE GPRESSURE VOLUME PRESSAVG GPRESSAVG
ENERGY: 500000 0.0000 0.0000 0.0000 0.0000 -13377.0100 2192.5099 0.0000 0.0000 855.8435 -10328.6565 148.3058 -11184.5000 -10326.8123 148.3058 -184.2415 -125.0344 28459.6554 -184.2415 -125.0344
ENERGY: 600000 0.0000 0.0000 0.0000 0.0000 -12879.2791 1982.0037 0.0000 0.0000 1055.8042 -9841.4712 182.9562 -10897.2754 -9839.9567 180.1588 -754.0609 -701.9026 28453.5872 2.9424 2.8817
TCL: Running 100000 steps at 210 kelvin.
TCL: Setting parameter langevinTemp to 210
TCL: Running for 100000 steps
ETITLE: TS BOND ANGLE DIHED IMPRP ELECT VDW BOUNDARY MISC KINETIC TOTAL TEMP POTENTIAL TOTAL3 TEMPAVG PRESSURE GPRESSURE VOLUME PRESSAVG GPRESSAVG
ENERGY: 600000 0.0000 0.0000 0.0000 0.0000 -12879.2791 1982.0037 0.0000 0.0000 1055.2952 -9841.9802 182.8680 -10897.2754 -9839.9804 182.8680 -754.0642 -703.1235 28453.5872 -754.0642 -703.1235
ENERGY: 700000 0.0000 0.0000 0.0000 0.0000 -12357.2917 1884.3089 0.0000 0.0000 1224.6575 -9248.3253 212.2161 -10472.9828 -9244.4046 209.7578 200.3852 259.5544 28281.1312 2.1874 2.2511
TCL: Running 100000 steps at 240 kelvin.
TCL: Setting parameter langevinTemp to 240
TCL: Running for 100000 steps
ETITLE: TS BOND ANGLE DIHED IMPRP ELECT VDW BOUNDARY MISC KINETIC TOTAL TEMP POTENTIAL TOTAL3 TEMPAVG PRESSURE GPRESSURE VOLUME PRESSAVG GPRESSAVG
ENERGY: 700000 0.0000 0.0000 0.0000 0.0000 -12357.2917 1884.3089 0.0000 0.0000 1224.0565 -9248.9262 212.1120 -10472.9828 -9247.4666 212.1120 195.3106 262.4788 28281.1312 195.3106 262.4788
ENERGY: 800000 0.0000 0.0000 0.0000 0.0000 -11750.2837 1730.7890 0.0000 0.0000 1381.6124 -8637.8824 239.4142 -10019.4948 -8635.3452 239.9739 448.5210 547.1307 28335.1177 4.8483 4.7512
TCL: Running 100000 steps at 270 kelvin.
TCL: Setting parameter langevinTemp to 270
TCL: Running for 100000 steps
ETITLE: TS BOND ANGLE DIHED IMPRP ELECT VDW BOUNDARY MISC KINETIC TOTAL TEMP POTENTIAL TOTAL3 TEMPAVG PRESSURE GPRESSURE VOLUME PRESSAVG GPRESSAVG
ENERGY: 800000 0.0000 0.0000 0.0000 0.0000 -11750.2837 1730.7890 0.0000 0.0000 1380.9352 -8638.5596 239.2969 -10019.4948 -8636.5433 239.2969 471.4103 548.0626 28335.1177 471.4103 548.0626
ENERGY: 900000 0.0000 0.0000 0.0000 0.0000 -11173.7381 1583.1676 0.0000 0.0000 1551.0558 -8039.5148 268.7764 -9590.5706 -8037.1683 270.0144 129.5425 170.3673 29465.5202 3.4349 3.5276
TCL: Running 1000000 steps at 300 kelvin.
TCL: Setting parameter langevinTemp to 300
TCL: Running for 1000000 steps
ETITLE: TS BOND ANGLE DIHED IMPRP ELECT VDW BOUNDARY MISC KINETIC TOTAL TEMP POTENTIAL TOTAL3 TEMPAVG PRESSURE GPRESSURE VOLUME PRESSAVG GPRESSAVG
ENERGY: 900000 0.0000 0.0000 0.0000 0.0000 -11173.7381 1583.1676 0.0000 0.0000 1550.2715 -8040.2991 268.6405 -9590.5706 -8037.8365 268.6405 93.1471 169.5795 29465.5202 93.1471 169.5795
ENERGY: 1100000 0.0000 0.0000 0.0000 0.0000 -10580.2768 1382.2940 0.0000 0.0000 1723.3641 -7474.6187 298.6351 -9197.9829 -7471.9611 300.5309 -22.1012 -4.8674 29672.4155 3.2663 3.1925
ENERGY: 1300000 0.0000 0.0000 0.0000 0.0000 -10635.3386 1463.0878 0.0000 0.0000 1717.7542 -7454.4965 297.6630 -9172.2508 -7453.4075 300.5742 466.0760 624.4815 29855.0592 2.3256 2.4144
ENERGY: 1500000 0.0000 0.0000 0.0000 0.0000 -10710.2541 1465.5560 0.0000 0.0000 1779.1362 -7465.5619 308.2996 -9244.6981 -7463.9260 299.9123 75.5122 180.5538 30335.8711 3.0587 3.0691
ENERGY: 1700000 0.0000 0.0000 0.0000 0.0000 -10710.1691 1453.1797 0.0000 0.0000 1761.1072 -7495.8822 305.1754 -9256.9894 -7493.0286 300.2739 200.2199 252.3744 30221.6177 4.0379 4.0292
ENERGY: 1900000 0.0000 0.0000 0.0000 0.0000 -10622.7485 1431.7204 0.0000 0.0000 1719.9079 -7471.1201 298.0362 -9191.0281 -7467.3840 300.8928 88.0188 194.2963 30056.1764 2.8355 2.6626
TCL: Exiting due to exit command.
