Info: SIMULATION PARAMETERS:
Info: TIMESTEP               2
Info: NUMBER OF STEPS        0
Info: STEPS PER CYCLE        10
Info: PERIODIC CELL BASIS 1  37.435 0 0
Info: PERIODIC CELL BASIS 2  0 35.847 0
Info: PERIODIC CELL BASIS 3  0 0 33.152
Info: PERIODIC CELL CENTER   0 0 0
Info: WRAPPING WATERS AROUND PERIODIC BOUNDARIES ON OUTPUT.
Info: WRAPPING ALL CLUSTERS AROUND PERIODIC BOUNDARIES ON OUTPUT.
Info: FIRST LDB TIMESTEP     50
Info: LAST LDB TIMESTEP     -1
Info: HOM BACKGROUND SCALING 1
Info: PME BACKGROUND SCALING 1
Info: MIN ATOMS PER PATCH    40
Info: EMPTY PATCH LOAD       40 ATOMS
Info: INITIAL TEMPERATURE    300
Info: CENTER OF MASS MOVING INITIALLY? NO
Info: DIELECTRIC             1
Info: EXCLUDE                SCALED ONE-FOUR
Info: 1-4 ELECTROSTATICS SCALED BY 0.833333
Info: MODIFIED 1-4 VDW PARAMETERS WILL BE USED
Info: DCD FILENAME           mobley_4584540_equil.dcd
Info: DCD FREQUENCY          100000
Info: DCD FIRST STEP         100000
Info: DCD FILE WILL CONTAIN UNIT CELL DATA
Info: XST FILENAME           mobley_4584540_equil.xst
Info: XST FREQUENCY          100000
Info: NO VELOCITY DCD OUTPUT
Info: NO FORCE DCD OUTPUT
Info: OUTPUT FILENAME        mobley_4584540_equil
Info: BINARY OUTPUT FILES WILL BE USED
Info: RESTART FILENAME       mobley_4584540_equil.restart
Info: RESTART FREQUENCY      100000
Info: BINARY RESTART FILES WILL BE USED
Info: CUTOFF                 9
Info: PAIRLIST DISTANCE      11
Info: PAIRLIST SHRINK RATE   0.01
Info: PAIRLIST GROW RATE     0.01
Info: PAIRLIST TRIGGER       0.3
Info: PAIRLISTS PER CYCLE    2
Info: PAIRLISTS ENABLED
Info: MARGIN                 8
Info: HYDROGEN GROUP CUTOFF  2.5
Info: PATCH DIMENSION        21.5
Info: ENERGY OUTPUT STEPS    100000
Info: ENERGY EVALUATION STEPS    100000
Info: OUTPUT ENERGY PRECISION 4
Info: CROSSTERM ENERGY INCLUDED IN DIHEDRAL
Info: TIMING OUTPUT STEPS    1000000
Info: PRESSURE OUTPUT STEPS  100000
Info: FIXED ATOMS ACTIVE
Info: LANGEVIN DYNAMICS ACTIVE
Info: LANGEVIN TEMPERATURE   30
Info: LANGEVIN USING BBK INTEGRATOR
Info: LANGEVIN DAMPING COEFFICIENT IS 1 INVERSE PS
Info: LANGEVIN DYNAMICS APPLIED TO HYDROGENS
Info: LANGEVIN PISTON PRESSURE CONTROL ACTIVE
Info:        TARGET PRESSURE IS 1.01325 BAR
Info:     OSCILLATION PERIOD IS 50 FS
Info:             DECAY TIME IS 25 FS
Info:     PISTON TEMPERATURE IS 300 K
Info:       PRESSURE CONTROL IS GROUP-BASED
Info:    INITIAL STRAIN RATE IS 0 0 0
Info:       CELL FLUCTUATION IS ISOTROPIC
Info: PARTICLE MESH EWALD (PME) ACTIVE
Info: PME TOLERANCE               1e-06
Info: PME EWALD COEFFICIENT       0.348832
Info: PME INTERPOLATION ORDER     4
Info: PME GRID DIMENSIONS         40 36 36
Info: PME MAXIMUM GRID SPACING    1
Info: FULL ELECTROSTATIC EVALUATION FREQUENCY      2
Info: USING VERLET I (r-RESPA) MTS SCHEME.
Info: C1 SPLITTING OF LONG RANGE ELECTROSTATICS
Info: PLACING ATOMS IN PATCHES BY HYDROGEN GROUPS
Info: RIGID BONDS TO HYDROGEN : ALL
Info:         ERROR TOLERANCE : 1e-08
Info:          MAX ITERATIONS : 100
Info: RIGID WATER USING SETTLE ALGORITHM
Info: RANDOM NUMBER SEED     1743739463
Info: USE HYDROGEN BONDS?    NO
Info: Using AMBER format force field!
Info: AMBER PARM FILE        mobley_4584540.prmtop
Info: COORDINATE PDB         mobley_4584540.pdb
Info: Exclusions will be read from PARM file!
Info: SCNB (VDW SCALING)     2
Info: USING ARITHMETIC MEAN TO COMBINE L-J SIGMA PARAMETERS
Info: BINARY COORDINATES     mobley_4584540_min.coor
Info: SUMMARY OF PARAMETERS:
Info: 7 BONDS
Info: 8 ANGLES
Info:   8 HARMONIC
Info:   0 COSINE-BASED
Info: 4 DIHEDRAL
Info: 0 IMPROPER
Info: 0 CROSSTERM
Info: 0 VDW
Info: 28 VDW_PAIRS
Info: 0 NBTHOLE_PAIRS
Info: STRUCTURE SUMMARY:
Info: 2981 ATOMS
Info: 2981 BONDS
Info: 28 ANGLES
Info: 37 DIHEDRALS
Info: 0 IMPROPERS
Info: 0 CROSSTERMS
Info: 3038 EXCLUSIONS
Info: 17 FIXED ATOMS
Info: 2973 RIGID BONDS
Info: 9 RIGID BONDS BETWEEN FIXED ATOMS
Info: 5928 DEGREES OF FREEDOM
Info: 996 HYDROGEN GROUPS
Info: 4 ATOMS IN LARGEST HYDROGEN GROUP
Info: 996 MIGRATION GROUPS
Info: 4 ATOMS IN LARGEST MIGRATION GROUP
Info: 8 HYDROGEN GROUPS WITH ALL ATOMS FIXED
Info: TOTAL MASS = 17907 amu
Info: TOTAL CHARGE = -0.000499979 e
Info: MASS DENSITY = 0.668407 g/cm^3
Info: ATOM DENSITY = 0.0670072 atoms/A^3
Info: ADDED 0 IMPLICIT EXCLUSIONS
Info: NONBONDED TABLE R-SQUARED SPACING: 0.0625
Info: NONBONDED TABLE SIZE: 705 POINTS
Info: REMOVING COM VELOCITY 0.053974 -0.0548487 0.155679
TCL: Running for 100000 steps
ETITLE: TS BOND ANGLE DIHED IMPRP ELECT VDW BOUNDARY MISC KINETIC TOTAL TEMP POTENTIAL TOTAL3 TEMPAVG PRESSURE GPRESSURE VOLUME PRESSAVG GPRESSAVG
ENERGY: 0 0.0000 0.0000 0.0000 0.0000 -13825.2745 2411.8302 0.0000 0.0000 1740.5904 -9672.8539 295.5145 -11413.4443 -9672.5516 295.5145 347.8804 384.0078 44487.7444 347.8804 384.0078
ENERGY: 100000 0.0000 0.0000 0.0000 0.0000 -14353.1252 2447.1108 0.0000 0.0000 172.4058 -11733.6085 29.2708 -11906.0143 -11733.1515 30.8690 -378.4635 -334.1716 29263.3817 3.8011 3.8134
TCL: Running 100000 steps at 60 kelvin.
TCL: Setting parameter langevinTemp to 60
TCL: Running for 100000 steps
ETITLE: TS BOND ANGLE DIHED IMPRP ELECT VDW BOUNDARY MISC KINETIC TOTAL TEMP POTENTIAL TOTAL3 TEMPAVG PRESSURE GPRESSURE VOLUME PRESSAVG GPRESSAVG
ENERGY: 100000 0.0000 0.0000 0.0000 0.0000 -14353.1252 2447.1108 0.0000 0.0000 172.3174 -11733.6969 29.2558 -11906.0143 -11733.3116 29.2558 -384.0304 -334.1575 29263.3817 -384.0304 -334.1575
ENERGY: 200000 0.0000 0.0000 0.0000 0.0000 -14354.5990 2487.7511 0.0000 0.0000 354.5946 -11512.2534 60.2025 -11866.8480 -11511.8968 60.0427 181.9137 234.4905 29102.1264 3.7992 3.7352
TCL: Running 100000 steps at 90 kelvin.
TCL: Setting parameter langevinTemp to 90
TCL: Running for 100000 steps
ETITLE: TS BOND ANGLE DIHED IMPRP ELECT VDW BOUNDARY MISC KINETIC TOTAL TEMP POTENTIAL TOTAL3 TEMPAVG PRESSURE GPRESSURE VOLUME PRESSAVG GPRESSAVG
ENERGY: 200000 0.0000 0.0000 0.0000 0.0000 -14354.5990 2487.7511 0.0000 0.0000 354.4137 -11512.4342 60.1718 -11866.8480 -11511.7818 60.1718 195.3115 233.9675 29102.1264 195.3115 233.9675
ENERGY: 300000 0.0000 0.0000 0.0000 0.0000 -14226.2579 2492.8263 0.0000 0.0000 540.6045 -11192.8271 91.7829 -11733.4316 -11191.6986 90.0979 744.4291 782.2552 29236.4615 3.3736 3.2957
TCL: Running 100000 steps at 120 kelvin.
TCL: Setting parameter langevinTemp to 120
TCL: Running for 100000 steps
ETITLE: TS BOND ANGLE DIHED IMPRP ELECT VDW BOUNDARY MISC KINETIC TOTAL TEMP POTENTIAL TOTAL3 TEMPAVG PRESSURE GPRESSURE VOLUME PRESSAVG GPRESSAVG
ENERGY: 300000 0.0000 0.0000 0.0000 0.0000 -14226.2579 2492.8263 0.0000 0.0000 540.3419 -11193.0897 91.7383 -11733.4316 -11192.1676 91.7383 729.1216 782.3907 29236.4615 729.1216 782.3907
ENERGY: 400000 0.0000 0.0000 0.0000 0.0000 -14180.5798 2548.8862 0.0000 0.0000 718.9621 -10912.7315 122.0642 -11631.6936 -10911.4034 119.8876 1538.2705 1609.3914 29059.7622 4.0223 3.9518
TCL: Running 100000 steps at 150 kelvin.
TCL: Setting parameter langevinTemp to 150
TCL: Running for 100000 steps
ETITLE: TS BOND ANGLE DIHED IMPRP ELECT VDW BOUNDARY MISC KINETIC TOTAL TEMP POTENTIAL TOTAL3 TEMPAVG PRESSURE GPRESSURE VOLUME PRESSAVG GPRESSAVG
ENERGY: 400000 0.0000 0.0000 0.0000 0.0000 -14180.5798 2548.8862 0.0000 0.0000 718.6238 -10913.0698 122.0067 -11631.6936 -10911.6451 122.0067 1564.8274 1608.7963 29059.7622 1564.8274 1608.7963
ENERGY: 500000 0.0000 0.0000 0.0000 0.0000 -13784.6993 2322.5184 0.0000 0.0000 885.5948 -10576.5862 150.3548 -11462.1810 -10574.5068 149.9176 629.8477 659.2195 28732.1612 4.4126 4.4546
TCL: Running 100000 steps at 180 kelvin.
TCL: Setting parameter langevinTemp to 180
TCL: Running for 100000 steps
ETITLE: TS BOND ANGLE DIHED IMPRP ELECT VDW BOUNDARY MISC KINETIC TOTAL TEMP POTENTIAL TOTAL3 TEMPAVG PRESSURE GPRESSURE VOLUME PRESSAVG GPRESSAVG
ENERGY: 500000 0.0000 0.0000 0.0000 0.0000 -13784.6993 2322.5184 0.0000 0.0000 885.1663 -10577.0147 150.2820 -11462.1810 -10575.1190 150.2820 608.1500 660.0765 28732.1612 608.1500 660.0765
ENERGY: 600000 0.0000 0.0000 0.0000 0.0000 -13273.3022 2097.6493 0.0000 0.0000 1088.2779 -10087.3750 184.7660 -11175.6529 -10084.4205 179.6918 -513.8213 -470.9437 29475.7620 3.0064 2.8084
TCL: Running 100000 steps at 210 kelvin.
TCL: Setting parameter langevinTemp to 210
TCL: Running for 100000 steps
ETITLE: TS BOND ANGLE DIHED IMPRP ELECT VDW BOUNDARY MISC KINETIC TOTAL TEMP POTENTIAL TOTAL3 TEMPAVG PRESSURE GPRESSURE VOLUME PRESSAVG GPRESSAVG
ENERGY: 600000 0.0000 0.0000 0.0000 0.0000 -13273.3022 2097.6493 0.0000 0.0000 1087.7533 -10087.8995 184.6769 -11175.6529 -10085.4168 184.6769 -524.1031 -471.6048 29475.7620 -524.1031 -471.6048
ENERGY: 700000 0.0000 0.0000 0.0000 0.0000 -12490.5773 1838.1478 0.0000 0.0000 1248.1309 -9404.2986 211.9055 -10652.4295 -9399.9529 210.0036 -478.4855 -318.4376 29041.5015 4.2650 4.0960
TCL: Running 100000 steps at 240 kelvin.
TCL: Setting parameter langevinTemp to 240
TCL: Running for 100000 steps
ETITLE: TS BOND ANGLE DIHED IMPRP ELECT VDW BOUNDARY MISC KINETIC TOTAL TEMP POTENTIAL TOTAL3 TEMPAVG PRESSURE GPRESSURE VOLUME PRESSAVG GPRESSAVG
ENERGY: 700000 0.0000 0.0000 0.0000 0.0000 -12490.5773 1838.1478 0.0000 0.0000 1247.5031 -9404.9264 211.7990 -10652.4295 -9402.7289 211.7990 -390.4200 -315.5335 29041.5015 -390.4200 -315.5335
ENERGY: 800000 0.0000 0.0000 0.0000 0.0000 -11823.4396 1596.8407 0.0000 0.0000 1394.8034 -8831.7954 236.8074 -10226.5989 -8829.7715 239.9822 -921.7889 -868.7351 29297.7018 5.0502 5.0280
TCL: Running 100000 steps at 270 kelvin.
TCL: Setting parameter langevinTemp to 270
TCL: Running for 100000 steps
ETITLE: TS BOND ANGLE DIHED IMPRP ELECT VDW BOUNDARY MISC KINETIC TOTAL TEMP POTENTIAL TOTAL3 TEMPAVG PRESSURE GPRESSURE VOLUME PRESSAVG GPRESSAVG
ENERGY: 800000 0.0000 0.0000 0.0000 0.0000 -11823.4396 1596.8407 0.0000 0.0000 1394.1076 -8832.4913 236.6892 -10226.5989 -8829.7932 236.6892 -952.1222 -871.0094 29297.7018 -952.1222 -871.0094
ENERGY: 900000 0.0000 0.0000 0.0000 0.0000 -11546.4419 1664.4331 0.0000 0.0000 1589.8415 -8292.1673 269.9206 -9882.0087 -8289.7932 269.7639 342.3813 452.5936 29924.3936 2.0661 1.9747
TCL: Running 1000000 steps at 300 kelvin.
TCL: Setting parameter langevinTemp to 300
TCL: Running for 1000000 steps
ETITLE: TS BOND ANGLE DIHED IMPRP ELECT VDW BOUNDARY MISC KINETIC TOTAL TEMP POTENTIAL TOTAL3 TEMPAVG PRESSURE GPRESSURE VOLUME PRESSAVG GPRESSAVG
ENERGY: 900000 0.0000 0.0000 0.0000 0.0000 -11546.4419 1664.4331 0.0000 0.0000 1589.0476 -8292.9611 269.7858 -9882.0087 -8290.6833 269.7858 365.2248 452.1576 29924.3936 365.2248 452.1576
ENERGY: 1100000 0.0000 0.0000 0.0000 0.0000 -11022.8763 1539.9907 0.0000 0.0000 1782.5738 -7700.3118 302.6424 -9482.8856 -7693.1121 300.0801 670.3049 810.3650 30228.2235 4.2271 4.1639
ENERGY: 1300000 0.0000 0.0000 0.0000 0.0000 -10844.0079 1397.6961 0.0000 0.0000 1807.6353 -7638.6765 306.8972 -9446.3117 -7634.8242 299.9179 -640.1656 -528.4808 31017.7953 3.3361 3.1947
ENERGY: 1500000 0.0000 0.0000 0.0000 0.0000 -10855.7016 1413.2644 0.0000 0.0000 1839.7610 -7602.6762 312.3515 -9442.4372 -7600.2376 300.6861 -280.2937 -173.9286 30639.0129 2.4109 2.3441
ENERGY: 1700000 0.0000 0.0000 0.0000 0.0000 -10860.0216 1488.2587 0.0000 0.0000 1815.7527 -7556.0103 308.2754 -9371.7630 -7553.5272 300.0903 618.3874 615.0265 30734.8372 3.7897 3.7084
ENERGY: 1900000 0.0000 0.0000 0.0000 0.0000 -10897.7421 1491.1758 0.0000 0.0000 1824.0137 -7582.5527 309.6779 -9406.5663 -7578.2723 300.2786 534.6888 562.8857 30420.1981 3.2586 3.1848
TCL: Exiting due to exit command.
