Info: SIMULATION PARAMETERS:
Info: TIMESTEP               2
Info: NUMBER OF STEPS        0
Info: STEPS PER CYCLE        10
Info: PERIODIC CELL BASIS 1  36.005 0 0
Info: PERIODIC CELL BASIS 2  0 35.267 0
Info: PERIODIC CELL BASIS 3  0 0 35.644
Info: PERIODIC CELL CENTER   0 0 0
Info: WRAPPING WATERS AROUND PERIODIC BOUNDARIES ON OUTPUT.
Info: WRAPPING ALL CLUSTERS AROUND PERIODIC BOUNDARIES ON OUTPUT.
Info: FIRST LDB TIMESTEP     50
Info: LAST LDB TIMESTEP     -1
Info: HOM BACKGROUND SCALING 1
Info: PME BACKGROUND SCALING 1
Info: MIN ATOMS PER PATCH    40
Info: EMPTY PATCH LOAD       40 ATOMS
Info: INITIAL TEMPERATURE    300
Info: CENTER OF MASS MOVING INITIALLY? NO
Info: DIELECTRIC             1
Info: EXCLUDE                SCALED ONE-FOUR
Info: 1-4 ELECTROSTATICS SCALED BY 0.833333
Info: MODIFIED 1-4 VDW PARAMETERS WILL BE USED
Info: DCD FILENAME           mobley_7732703_equil.dcd
Info: DCD FREQUENCY          100000
Info: DCD FIRST STEP         100000
Info: DCD FILE WILL CONTAIN UNIT CELL DATA
Info: XST FILENAME           mobley_7732703_equil.xst
Info: XST FREQUENCY          100000
Info: NO VELOCITY DCD OUTPUT
Info: NO FORCE DCD OUTPUT
Info: OUTPUT FILENAME        mobley_7732703_equil
Info: BINARY OUTPUT FILES WILL BE USED
Info: RESTART FILENAME       mobley_7732703_equil.restart
Info: RESTART FREQUENCY      100000
Info: BINARY RESTART FILES WILL BE USED
Info: CUTOFF                 9
Info: PAIRLIST DISTANCE      11
Info: PAIRLIST SHRINK RATE   0.01
Info: PAIRLIST GROW RATE     0.01
Info: PAIRLIST TRIGGER       0.3
Info: PAIRLISTS PER CYCLE    2
Info: PAIRLISTS ENABLED
Info: MARGIN                 8
Info: HYDROGEN GROUP CUTOFF  2.5
Info: PATCH DIMENSION        21.5
Info: ENERGY OUTPUT STEPS    100000
Info: ENERGY EVALUATION STEPS    100000
Info: OUTPUT ENERGY PRECISION 4
Info: CROSSTERM ENERGY INCLUDED IN DIHEDRAL
Info: TIMING OUTPUT STEPS    1000000
Info: PRESSURE OUTPUT STEPS  100000
Info: FIXED ATOMS ACTIVE
Info: LANGEVIN DYNAMICS ACTIVE
Info: LANGEVIN TEMPERATURE   30
Info: LANGEVIN USING BBK INTEGRATOR
Info: LANGEVIN DAMPING COEFFICIENT IS 1 INVERSE PS
Info: LANGEVIN DYNAMICS APPLIED TO HYDROGENS
Info: LANGEVIN PISTON PRESSURE CONTROL ACTIVE
Info:        TARGET PRESSURE IS 1.01325 BAR
Info:     OSCILLATION PERIOD IS 50 FS
Info:             DECAY TIME IS 25 FS
Info:     PISTON TEMPERATURE IS 300 K
Info:       PRESSURE CONTROL IS GROUP-BASED
Info:    INITIAL STRAIN RATE IS 0 0 0
Info:       CELL FLUCTUATION IS ISOTROPIC
Info: PARTICLE MESH EWALD (PME) ACTIVE
Info: PME TOLERANCE               1e-06
Info: PME EWALD COEFFICIENT       0.348832
Info: PME INTERPOLATION ORDER     4
Info: PME GRID DIMENSIONS         40 36 36
Info: PME MAXIMUM GRID SPACING    1
Info: FULL ELECTROSTATIC EVALUATION FREQUENCY      2
Info: USING VERLET I (r-RESPA) MTS SCHEME.
Info: C1 SPLITTING OF LONG RANGE ELECTROSTATICS
Info: PLACING ATOMS IN PATCHES BY HYDROGEN GROUPS
Info: RIGID BONDS TO HYDROGEN : ALL
Info:         ERROR TOLERANCE : 1e-08
Info:          MAX ITERATIONS : 100
Info: RIGID WATER USING SETTLE ALGORITHM
Info: RANDOM NUMBER SEED     1743678990
Info: USE HYDROGEN BONDS?    NO
Info: Using AMBER format force field!
Info: AMBER PARM FILE        mobley_7732703.prmtop
Info: COORDINATE PDB         mobley_7732703.pdb
Info: Exclusions will be read from PARM file!
Info: SCNB (VDW SCALING)     2
Info: USING ARITHMETIC MEAN TO COMBINE L-J SIGMA PARAMETERS
Info: BINARY COORDINATES     mobley_7732703_min.coor
Info: SUMMARY OF PARAMETERS:
Info: 4 BONDS
Info: 2 ANGLES
Info:   2 HARMONIC
Info:   0 COSINE-BASED
Info: 0 DIHEDRAL
Info: 0 IMPROPER
Info: 0 CROSSTERM
Info: 0 VDW
Info: 15 VDW_PAIRS
Info: 0 NBTHOLE_PAIRS
Info: STRUCTURE SUMMARY:
Info: 2987 ATOMS
Info: 2986 BONDS
Info: 6 ANGLES
Info: 0 DIHEDRALS
Info: 0 IMPROPERS
Info: 0 CROSSTERMS
Info: 2992 EXCLUSIONS
Info: 5 FIXED ATOMS
Info: 2982 RIGID BONDS
Info: 0 RIGID BONDS BETWEEN FIXED ATOMS
Info: 5964 DEGREES OF FREEDOM
Info: 999 HYDROGEN GROUPS
Info: 3 ATOMS IN LARGEST HYDROGEN GROUP
Info: 999 MIGRATION GROUPS
Info: 3 ATOMS IN LARGEST MIGRATION GROUP
Info: 5 HYDROGEN GROUPS WITH ALL ATOMS FIXED
Info: TOTAL MASS = 18056.8 amu
Info: TOTAL CHARGE = 9.99942e-05 e
Info: MASS DENSITY = 0.662495 g/cm^3
Info: ATOM DENSITY = 0.065996 atoms/A^3
Info: ADDED 0 IMPLICIT EXCLUSIONS
Info: NONBONDED TABLE R-SQUARED SPACING: 0.0625
Info: NONBONDED TABLE SIZE: 705 POINTS
Info: REMOVING COM VELOCITY 0.0442776 0.0156753 0.0415722
TCL: Running for 100000 steps
ETITLE: TS BOND ANGLE DIHED IMPRP ELECT VDW BOUNDARY MISC KINETIC TOTAL TEMP POTENTIAL TOTAL3 TEMPAVG PRESSURE GPRESSURE VOLUME PRESSAVG GPRESSAVG
ENERGY: 0 0.0000 0.0000 0.0000 0.0000 -13878.7965 2455.1738 0.0000 0.0000 1807.1075 -9616.5152 304.9557 -11423.6228 -9616.1540 304.9557 608.9664 646.4851 45260.3354 608.9664 646.4851
ENERGY: 100000 0.0000 0.0000 0.0000 0.0000 -14464.3893 2486.3320 0.0000 0.0000 180.1053 -11797.9519 30.3934 -11978.0572 -11797.5838 30.9982 -182.2471 -125.7462 28993.4645 3.4896 3.5060
TCL: Running 100000 steps at 60 kelvin.
TCL: Setting parameter langevinTemp to 60
TCL: Running for 100000 steps
ETITLE: TS BOND ANGLE DIHED IMPRP ELECT VDW BOUNDARY MISC KINETIC TOTAL TEMP POTENTIAL TOTAL3 TEMPAVG PRESSURE GPRESSURE VOLUME PRESSAVG GPRESSAVG
ENERGY: 100000 0.0000 0.0000 0.0000 0.0000 -14464.3893 2486.3320 0.0000 0.0000 180.0165 -11798.0407 30.3784 -11978.0572 -11797.6141 30.3784 -180.6955 -125.8679 28993.4645 -180.6955 -125.8679
ENERGY: 200000 0.0000 0.0000 0.0000 0.0000 -14263.2780 2365.1019 0.0000 0.0000 342.4664 -11555.7096 57.7924 -11898.1760 -11555.1116 59.9606 -835.1850 -786.2702 29138.3000 3.7920 3.8444
TCL: Running 100000 steps at 90 kelvin.
TCL: Setting parameter langevinTemp to 90
TCL: Running for 100000 steps
ETITLE: TS BOND ANGLE DIHED IMPRP ELECT VDW BOUNDARY MISC KINETIC TOTAL TEMP POTENTIAL TOTAL3 TEMPAVG PRESSURE GPRESSURE VOLUME PRESSAVG GPRESSAVG
ENERGY: 200000 0.0000 0.0000 0.0000 0.0000 -14263.2780 2365.1019 0.0000 0.0000 342.2955 -11555.8805 57.7636 -11898.1760 -11555.0081 57.7636 -852.6299 -786.6338 29138.3000 -852.6299 -786.6338
ENERGY: 300000 0.0000 0.0000 0.0000 0.0000 -14205.0845 2432.6824 0.0000 0.0000 535.8955 -11236.5066 90.4342 -11772.4022 -11235.1071 89.8702 199.8532 274.1372 29097.3816 5.2405 5.3034
TCL: Running 100000 steps at 120 kelvin.
TCL: Setting parameter langevinTemp to 120
TCL: Running for 100000 steps
ETITLE: TS BOND ANGLE DIHED IMPRP ELECT VDW BOUNDARY MISC KINETIC TOTAL TEMP POTENTIAL TOTAL3 TEMPAVG PRESSURE GPRESSURE VOLUME PRESSAVG GPRESSAVG
ENERGY: 300000 0.0000 0.0000 0.0000 0.0000 -14205.0845 2432.6824 0.0000 0.0000 535.6365 -11236.7657 90.3905 -11772.4022 -11235.8589 90.3905 220.4340 274.5789 29097.3816 220.4340 274.5789
ENERGY: 400000 0.0000 0.0000 0.0000 0.0000 -14003.0961 2340.7530 0.0000 0.0000 743.6162 -10918.7269 125.4878 -11662.3430 -10916.9049 119.9861 -47.8304 -73.1222 29069.7206 4.5584 4.5820
TCL: Running 100000 steps at 150 kelvin.
TCL: Setting parameter langevinTemp to 150
TCL: Running for 100000 steps
ETITLE: TS BOND ANGLE DIHED IMPRP ELECT VDW BOUNDARY MISC KINETIC TOTAL TEMP POTENTIAL TOTAL3 TEMPAVG PRESSURE GPRESSURE VOLUME PRESSAVG GPRESSAVG
ENERGY: 400000 0.0000 0.0000 0.0000 0.0000 -14003.0961 2340.7530 0.0000 0.0000 743.2538 -10919.0892 125.4267 -11662.3430 -10917.7872 125.4267 -115.6241 -73.3560 29069.7206 -115.6241 -73.3560
ENERGY: 500000 0.0000 0.0000 0.0000 0.0000 -13901.6637 2412.1603 0.0000 0.0000 881.7157 -10607.7878 148.7926 -11489.5034 -10605.2591 150.0061 875.4527 941.2960 29237.6117 2.0385 2.0649
TCL: Running 100000 steps at 180 kelvin.
TCL: Setting parameter langevinTemp to 180
TCL: Running for 100000 steps
ETITLE: TS BOND ANGLE DIHED IMPRP ELECT VDW BOUNDARY MISC KINETIC TOTAL TEMP POTENTIAL TOTAL3 TEMPAVG PRESSURE GPRESSURE VOLUME PRESSAVG GPRESSAVG
ENERGY: 500000 0.0000 0.0000 0.0000 0.0000 -13901.6637 2412.1603 0.0000 0.0000 881.2686 -10608.2348 148.7171 -11489.5034 -10606.5091 148.7171 871.2820 941.9724 29237.6117 871.2820 941.9724
ENERGY: 600000 0.0000 0.0000 0.0000 0.0000 -13327.5565 2101.0585 0.0000 0.0000 1040.5048 -10185.9932 175.5888 -11226.4980 -10184.7242 180.5663 -768.5282 -702.0010 29789.4201 2.5566 2.4842
TCL: Running 100000 steps at 210 kelvin.
TCL: Setting parameter langevinTemp to 210
TCL: Running for 100000 steps
ETITLE: TS BOND ANGLE DIHED IMPRP ELECT VDW BOUNDARY MISC KINETIC TOTAL TEMP POTENTIAL TOTAL3 TEMPAVG PRESSURE GPRESSURE VOLUME PRESSAVG GPRESSAVG
ENERGY: 600000 0.0000 0.0000 0.0000 0.0000 -13327.5565 2101.0585 0.0000 0.0000 1039.9709 -10186.5271 175.4987 -11226.4980 -10184.2800 175.4987 -765.5789 -702.7513 29789.4201 -765.5789 -702.7513
ENERGY: 700000 0.0000 0.0000 0.0000 0.0000 -12567.4186 1871.8075 0.0000 0.0000 1235.7016 -9459.9095 208.5289 -10695.6111 -9457.8670 209.7601 -337.0135 -323.6591 29278.5628 3.5761 3.4596
TCL: Running 100000 steps at 240 kelvin.
TCL: Setting parameter langevinTemp to 240
TCL: Running for 100000 steps
ETITLE: TS BOND ANGLE DIHED IMPRP ELECT VDW BOUNDARY MISC KINETIC TOTAL TEMP POTENTIAL TOTAL3 TEMPAVG PRESSURE GPRESSURE VOLUME PRESSAVG GPRESSAVG
ENERGY: 700000 0.0000 0.0000 0.0000 0.0000 -12567.4186 1871.8075 0.0000 0.0000 1235.0796 -9460.5315 208.4240 -10695.6111 -9458.9423 208.4240 -382.0458 -323.0766 29278.5628 -382.0458 -323.0766
ENERGY: 800000 0.0000 0.0000 0.0000 0.0000 -12067.7217 1805.0552 0.0000 0.0000 1424.0479 -8838.6186 240.3130 -10262.6665 -8836.6148 239.7545 660.7357 691.7321 29303.2388 3.6372 3.5590
TCL: Running 100000 steps at 270 kelvin.
TCL: Setting parameter langevinTemp to 270
TCL: Running for 100000 steps
ETITLE: TS BOND ANGLE DIHED IMPRP ELECT VDW BOUNDARY MISC KINETIC TOTAL TEMP POTENTIAL TOTAL3 TEMPAVG PRESSURE GPRESSURE VOLUME PRESSAVG GPRESSAVG
ENERGY: 800000 0.0000 0.0000 0.0000 0.0000 -12067.7217 1805.0552 0.0000 0.0000 1423.3336 -8839.3329 240.1925 -10262.6665 -8837.3570 240.1925 612.1872 691.3971 29303.2388 612.1872 691.3971
ENERGY: 900000 0.0000 0.0000 0.0000 0.0000 -11301.5221 1463.3225 0.0000 0.0000 1594.2625 -8243.9370 269.0374 -9838.1996 -8240.1091 269.8593 -818.8899 -778.0038 29835.7413 3.3589 3.2196
TCL: Running 1000000 steps at 300 kelvin.
TCL: Setting parameter langevinTemp to 300
TCL: Running for 1000000 steps
ETITLE: TS BOND ANGLE DIHED IMPRP ELECT VDW BOUNDARY MISC KINETIC TOTAL TEMP POTENTIAL TOTAL3 TEMPAVG PRESSURE GPRESSURE VOLUME PRESSAVG GPRESSAVG
ENERGY: 900000 0.0000 0.0000 0.0000 0.0000 -11301.5221 1463.3225 0.0000 0.0000 1593.4217 -8244.7779 268.8955 -9838.1996 -8241.9128 268.8955 -867.2062 -779.2242 29835.7413 -867.2062 -779.2242
ENERGY: 1100000 0.0000 0.0000 0.0000 0.0000 -10790.9690 1316.1416 0.0000 0.0000 1749.8527 -7724.9747 295.2937 -9474.8274 -7723.0069 300.4321 -1638.4679 -1586.5385 31929.1499 3.0069 2.9156
ENERGY: 1300000 0.0000 0.0000 0.0000 0.0000 -10953.2827 1526.6977 0.0000 0.0000 1713.2976 -7713.2874 289.1249 -9426.5850 -7709.7611 300.3320 432.3759 485.4862 31135.3915 2.1916 2.1264
ENERGY: 1500000 0.0000 0.0000 0.0000 0.0000 -10894.9080 1438.5564 0.0000 0.0000 1759.3969 -7696.9547 296.9044 -9456.3516 -7691.3347 299.7491 12.0761 87.5151 30470.0157 3.6356 3.3297
ENERGY: 1700000 0.0000 0.0000 0.0000 0.0000 -10927.3905 1480.7794 0.0000 0.0000 1705.6963 -7740.9148 287.8422 -9446.6111 -7736.8044 299.5997 210.6889 343.6195 30658.9989 4.0444 4.0727
ENERGY: 1900000 0.0000 0.0000 0.0000 0.0000 -10907.5998 1476.9269 0.0000 0.0000 1743.5181 -7687.1548 294.2248 -9430.6729 -7685.5010 300.1734 -60.5845 97.2492 30832.2513 2.3517 2.4761
TCL: Exiting due to exit command.
