Info: SIMULATION PARAMETERS:
Info: TIMESTEP               2
Info: NUMBER OF STEPS        0
Info: STEPS PER CYCLE        10
Info: PERIODIC CELL BASIS 1  36.592 0 0
Info: PERIODIC CELL BASIS 2  0 35.847 0
Info: PERIODIC CELL BASIS 3  0 0 33.27
Info: PERIODIC CELL CENTER   0 0 0
Info: WRAPPING WATERS AROUND PERIODIC BOUNDARIES ON OUTPUT.
Info: WRAPPING ALL CLUSTERS AROUND PERIODIC BOUNDARIES ON OUTPUT.
Info: FIRST LDB TIMESTEP     50
Info: LAST LDB TIMESTEP     -1
Info: HOM BACKGROUND SCALING 1
Info: PME BACKGROUND SCALING 1
Info: MIN ATOMS PER PATCH    40
Info: EMPTY PATCH LOAD       40 ATOMS
Info: INITIAL TEMPERATURE    300
Info: CENTER OF MASS MOVING INITIALLY? NO
Info: DIELECTRIC             1
Info: EXCLUDE                SCALED ONE-FOUR
Info: 1-4 ELECTROSTATICS SCALED BY 0.833333
Info: MODIFIED 1-4 VDW PARAMETERS WILL BE USED
Info: DCD FILENAME           mobley_1520842_equil.dcd
Info: DCD FREQUENCY          100000
Info: DCD FIRST STEP         100000
Info: DCD FILE WILL CONTAIN UNIT CELL DATA
Info: XST FILENAME           mobley_1520842_equil.xst
Info: XST FREQUENCY          100000
Info: NO VELOCITY DCD OUTPUT
Info: NO FORCE DCD OUTPUT
Info: OUTPUT FILENAME        mobley_1520842_equil
Info: BINARY OUTPUT FILES WILL BE USED
Info: RESTART FILENAME       mobley_1520842_equil.restart
Info: RESTART FREQUENCY      100000
Info: BINARY RESTART FILES WILL BE USED
Info: CUTOFF                 9
Info: PAIRLIST DISTANCE      11
Info: PAIRLIST SHRINK RATE   0.01
Info: PAIRLIST GROW RATE     0.01
Info: PAIRLIST TRIGGER       0.3
Info: PAIRLISTS PER CYCLE    2
Info: PAIRLISTS ENABLED
Info: MARGIN                 8
Info: HYDROGEN GROUP CUTOFF  2.5
Info: PATCH DIMENSION        21.5
Info: ENERGY OUTPUT STEPS    100000
Info: ENERGY EVALUATION STEPS    100000
Info: OUTPUT ENERGY PRECISION 4
Info: CROSSTERM ENERGY INCLUDED IN DIHEDRAL
Info: TIMING OUTPUT STEPS    1000000
Info: PRESSURE OUTPUT STEPS  100000
Info: FIXED ATOMS ACTIVE
Info: LANGEVIN DYNAMICS ACTIVE
Info: LANGEVIN TEMPERATURE   30
Info: LANGEVIN USING BBK INTEGRATOR
Info: LANGEVIN DAMPING COEFFICIENT IS 1 INVERSE PS
Info: LANGEVIN DYNAMICS APPLIED TO HYDROGENS
Info: LANGEVIN PISTON PRESSURE CONTROL ACTIVE
Info:        TARGET PRESSURE IS 1.01325 BAR
Info:     OSCILLATION PERIOD IS 50 FS
Info:             DECAY TIME IS 25 FS
Info:     PISTON TEMPERATURE IS 300 K
Info:       PRESSURE CONTROL IS GROUP-BASED
Info:    INITIAL STRAIN RATE IS 0 0 0
Info:       CELL FLUCTUATION IS ISOTROPIC
Info: PARTICLE MESH EWALD (PME) ACTIVE
Info: PME TOLERANCE               1e-06
Info: PME EWALD COEFFICIENT       0.348832
Info: PME INTERPOLATION ORDER     4
Info: PME GRID DIMENSIONS         40 36 36
Info: PME MAXIMUM GRID SPACING    1
Info: FULL ELECTROSTATIC EVALUATION FREQUENCY      2
Info: USING VERLET I (r-RESPA) MTS SCHEME.
Info: C1 SPLITTING OF LONG RANGE ELECTROSTATICS
Info: PLACING ATOMS IN PATCHES BY HYDROGEN GROUPS
Info: RIGID BONDS TO HYDROGEN : ALL
Info:         ERROR TOLERANCE : 1e-08
Info:          MAX ITERATIONS : 100
Info: RIGID WATER USING SETTLE ALGORITHM
Info: RANDOM NUMBER SEED     1744676353
Info: USE HYDROGEN BONDS?    NO
Info: Using AMBER format force field!
Info: AMBER PARM FILE        mobley_1520842.prmtop
Info: COORDINATE PDB         mobley_1520842.pdb
Info: Exclusions will be read from PARM file!
Info: SCNB (VDW SCALING)     2
Info: USING ARITHMETIC MEAN TO COMBINE L-J SIGMA PARAMETERS
Info: BINARY COORDINATES     mobley_1520842_min.coor
Info: SUMMARY OF PARAMETERS:
Info: 8 BONDS
Info: 9 ANGLES
Info:   9 HARMONIC
Info:   0 COSINE-BASED
Info: 4 DIHEDRAL
Info: 0 IMPROPER
Info: 0 CROSSTERM
Info: 0 VDW
Info: 36 VDW_PAIRS
Info: 0 NBTHOLE_PAIRS
Info: STRUCTURE SUMMARY:
Info: 2918 ATOMS
Info: 2918 BONDS
Info: 22 ANGLES
Info: 31 DIHEDRALS
Info: 0 IMPROPERS
Info: 0 CROSSTERMS
Info: 2963 EXCLUSIONS
Info: 14 FIXED ATOMS
Info: 2911 RIGID BONDS
Info: 7 RIGID BONDS BETWEEN FIXED ATOMS
Info: 5808 DEGREES OF FREEDOM
Info: 975 HYDROGEN GROUPS
Info: 4 ATOMS IN LARGEST HYDROGEN GROUP
Info: 975 MIGRATION GROUPS
Info: 4 ATOMS IN LARGEST MIGRATION GROUP
Info: 7 HYDROGEN GROUPS WITH ALL ATOMS FIXED
Info: TOTAL MASS = 17532.6 amu
Info: TOTAL CHARGE = 9.99868e-05 e
Info: MASS DENSITY = 0.667136 g/cm^3
Info: ATOM DENSITY = 0.0668642 atoms/A^3
Info: ADDED 0 IMPLICIT EXCLUSIONS
Info: NONBONDED TABLE R-SQUARED SPACING: 0.0625
Info: NONBONDED TABLE SIZE: 705 POINTS
Info: REMOVING COM VELOCITY -0.221063 0.0276219 0.0147461
TCL: Running for 100000 steps
ETITLE: TS BOND ANGLE DIHED IMPRP ELECT VDW BOUNDARY MISC KINETIC TOTAL TEMP POTENTIAL TOTAL3 TEMPAVG PRESSURE GPRESSURE VOLUME PRESSAVG GPRESSAVG
ENERGY: 0 0.0000 0.0000 0.0000 0.0000 -13559.4572 2383.8654 0.0000 0.0000 1696.3066 -9479.2852 293.9464 -11175.5918 -9478.9443 293.9464 423.9026 448.9057 43640.7056 423.9026 448.9057
ENERGY: 100000 0.0000 0.0000 0.0000 0.0000 -14157.3192 2477.8114 0.0000 0.0000 176.8439 -11502.6639 30.6446 -11679.5078 -11502.3887 30.8966 264.4163 313.7713 28403.9268 4.0817 4.0705
TCL: Running 100000 steps at 60 kelvin.
TCL: Setting parameter langevinTemp to 60
TCL: Running for 100000 steps
ETITLE: TS BOND ANGLE DIHED IMPRP ELECT VDW BOUNDARY MISC KINETIC TOTAL TEMP POTENTIAL TOTAL3 TEMPAVG PRESSURE GPRESSURE VOLUME PRESSAVG GPRESSAVG
ENERGY: 100000 0.0000 0.0000 0.0000 0.0000 -14157.3192 2477.8114 0.0000 0.0000 176.7587 -11502.7491 30.6298 -11679.5078 -11502.4198 30.6298 256.6649 313.6453 28403.9268 256.6649 313.6453
ENERGY: 200000 0.0000 0.0000 0.0000 0.0000 -14023.6324 2421.0119 0.0000 0.0000 337.7593 -11264.8612 58.5290 -11602.6206 -11263.8905 59.8332 -59.3004 39.0519 28608.6990 5.0866 5.0851
TCL: Running 100000 steps at 90 kelvin.
TCL: Setting parameter langevinTemp to 90
TCL: Running for 100000 steps
ETITLE: TS BOND ANGLE DIHED IMPRP ELECT VDW BOUNDARY MISC KINETIC TOTAL TEMP POTENTIAL TOTAL3 TEMPAVG PRESSURE GPRESSURE VOLUME PRESSAVG GPRESSAVG
ENERGY: 200000 0.0000 0.0000 0.0000 0.0000 -14023.6324 2421.0119 0.0000 0.0000 337.5821 -11265.0385 58.4983 -11602.6206 -11264.2079 58.4983 -21.9672 38.6604 28608.6990 -21.9672 38.6604
ENERGY: 300000 0.0000 0.0000 0.0000 0.0000 -13873.5953 2348.3471 0.0000 0.0000 507.7230 -11017.5251 87.9814 -11525.2482 -11015.8820 90.1976 -132.6629 -67.5787 28346.7405 3.6001 3.6421
TCL: Running 100000 steps at 120 kelvin.
TCL: Setting parameter langevinTemp to 120
TCL: Running for 100000 steps
ETITLE: TS BOND ANGLE DIHED IMPRP ELECT VDW BOUNDARY MISC KINETIC TOTAL TEMP POTENTIAL TOTAL3 TEMPAVG PRESSURE GPRESSURE VOLUME PRESSAVG GPRESSAVG
ENERGY: 300000 0.0000 0.0000 0.0000 0.0000 -13873.5953 2348.3471 0.0000 0.0000 507.4622 -11017.7860 87.9362 -11525.2482 -11016.9501 87.9362 -115.5199 -66.7744 28346.7405 -115.5199 -66.7744
ENERGY: 400000 0.0000 0.0000 0.0000 0.0000 -13654.0570 2276.2585 0.0000 0.0000 710.9951 -10666.8035 123.2056 -11377.7986 -10664.5279 119.9409 -307.7920 -304.3228 28793.8811 4.7269 4.7641
TCL: Running 100000 steps at 150 kelvin.
TCL: Setting parameter langevinTemp to 150
TCL: Running for 100000 steps
ETITLE: TS BOND ANGLE DIHED IMPRP ELECT VDW BOUNDARY MISC KINETIC TOTAL TEMP POTENTIAL TOTAL3 TEMPAVG PRESSURE GPRESSURE VOLUME PRESSAVG GPRESSAVG
ENERGY: 400000 0.0000 0.0000 0.0000 0.0000 -13654.0570 2276.2585 0.0000 0.0000 710.6404 -10667.1582 123.1441 -11377.7986 -10665.6725 123.1441 -352.9577 -303.7814 28793.8811 -352.9577 -303.7814
ENERGY: 500000 0.0000 0.0000 0.0000 0.0000 -13634.0341 2349.8663 0.0000 0.0000 843.9866 -10440.1812 146.2512 -11284.1678 -10438.2041 149.8521 742.7047 817.5598 28439.9600 2.5736 2.4413
TCL: Running 100000 steps at 180 kelvin.
TCL: Setting parameter langevinTemp to 180
TCL: Running for 100000 steps
ETITLE: TS BOND ANGLE DIHED IMPRP ELECT VDW BOUNDARY MISC KINETIC TOTAL TEMP POTENTIAL TOTAL3 TEMPAVG PRESSURE GPRESSURE VOLUME PRESSAVG GPRESSAVG
ENERGY: 500000 0.0000 0.0000 0.0000 0.0000 -13634.0341 2349.8663 0.0000 0.0000 843.5553 -10440.6125 146.1764 -11284.1678 -10438.8063 146.1764 772.2294 817.7393 28439.9600 772.2294 817.7393
ENERGY: 600000 0.0000 0.0000 0.0000 0.0000 -12986.5333 2080.9926 0.0000 0.0000 1047.7387 -9857.8021 181.5586 -10905.5407 -9854.2643 180.0467 327.4418 372.7604 28076.8429 2.8303 2.8776
TCL: Running 100000 steps at 210 kelvin.
TCL: Setting parameter langevinTemp to 210
TCL: Running for 100000 steps
ETITLE: TS BOND ANGLE DIHED IMPRP ELECT VDW BOUNDARY MISC KINETIC TOTAL TEMP POTENTIAL TOTAL3 TEMPAVG PRESSURE GPRESSURE VOLUME PRESSAVG GPRESSAVG
ENERGY: 600000 0.0000 0.0000 0.0000 0.0000 -12986.5333 2080.9926 0.0000 0.0000 1047.2095 -9858.3312 181.4669 -10905.5407 -9856.5320 181.4669 305.4097 374.1746 28076.8429 305.4097 374.1746
ENERGY: 700000 0.0000 0.0000 0.0000 0.0000 -12437.6434 1914.6275 0.0000 0.0000 1203.4954 -9319.5206 208.5490 -10523.0160 -9317.3083 209.3800 216.2576 271.5552 28375.0014 3.5029 3.4243
TCL: Running 100000 steps at 240 kelvin.
TCL: Setting parameter langevinTemp to 240
TCL: Running for 100000 steps
ETITLE: TS BOND ANGLE DIHED IMPRP ELECT VDW BOUNDARY MISC KINETIC TOTAL TEMP POTENTIAL TOTAL3 TEMPAVG PRESSURE GPRESSURE VOLUME PRESSAVG GPRESSAVG
ENERGY: 700000 0.0000 0.0000 0.0000 0.0000 -12437.6434 1914.6275 0.0000 0.0000 1202.8825 -9320.1334 208.4428 -10523.0160 -9317.6802 208.4428 187.5733 271.0458 28375.0014 187.5733 271.0458
ENERGY: 800000 0.0000 0.0000 0.0000 0.0000 -11571.8786 1553.1807 0.0000 0.0000 1371.5184 -8647.1795 237.6651 -10018.6978 -8644.0027 239.9071 -1041.6914 -1005.1749 28617.2881 2.7135 2.8449
TCL: Running 100000 steps at 270 kelvin.
TCL: Setting parameter langevinTemp to 270
TCL: Running for 100000 steps
ETITLE: TS BOND ANGLE DIHED IMPRP ELECT VDW BOUNDARY MISC KINETIC TOTAL TEMP POTENTIAL TOTAL3 TEMPAVG PRESSURE GPRESSURE VOLUME PRESSAVG GPRESSAVG
ENERGY: 800000 0.0000 0.0000 0.0000 0.0000 -11571.8786 1553.1807 0.0000 0.0000 1370.8275 -8647.8704 237.5454 -10018.6978 -8645.5042 237.5454 -1097.5856 -1005.5054 28617.2881 -1097.5856 -1005.5054
ENERGY: 900000 0.0000 0.0000 0.0000 0.0000 -11132.8622 1516.9279 0.0000 0.0000 1505.7149 -8110.2195 260.9195 -9615.9344 -8105.7839 269.8106 -539.1479 -461.8992 29720.4976 4.1448 4.1087
TCL: Running 1000000 steps at 300 kelvin.
TCL: Setting parameter langevinTemp to 300
TCL: Running for 1000000 steps
ETITLE: TS BOND ANGLE DIHED IMPRP ELECT VDW BOUNDARY MISC KINETIC TOTAL TEMP POTENTIAL TOTAL3 TEMPAVG PRESSURE GPRESSURE VOLUME PRESSAVG GPRESSAVG
ENERGY: 900000 0.0000 0.0000 0.0000 0.0000 -11132.8622 1516.9279 0.0000 0.0000 1504.9125 -8111.0219 260.7804 -9615.9344 -8108.7496 260.7804 -541.5831 -460.7449 29720.4976 -541.5831 -460.7449
ENERGY: 1100000 0.0000 0.0000 0.0000 0.0000 -10504.4600 1300.2931 0.0000 0.0000 1743.6665 -7460.5004 302.1532 -9204.1669 -7454.7902 299.9114 -1074.4179 -1009.1117 30428.6042 3.4973 3.4178
ENERGY: 1300000 0.0000 0.0000 0.0000 0.0000 -10574.9943 1354.2385 0.0000 0.0000 1797.9007 -7422.8551 311.5512 -9220.7558 -7420.0870 300.2458 -475.0562 -441.9789 30045.4834 3.1824 3.0444
ENERGY: 1500000 0.0000 0.0000 0.0000 0.0000 -10695.8415 1426.3960 0.0000 0.0000 1717.5691 -7551.8763 297.6309 -9269.4454 -7548.8488 300.2529 -76.9267 36.4869 29680.8620 2.6734 2.4093
ENERGY: 1700000 0.0000 0.0000 0.0000 0.0000 -10683.7111 1432.0073 0.0000 0.0000 1749.1632 -7502.5407 303.1057 -9251.7038 -7499.5461 300.1507 205.1474 215.2602 29830.1678 4.5934 4.8283
ENERGY: 1900000 0.0000 0.0000 0.0000 0.0000 -10732.2153 1466.4404 0.0000 0.0000 1696.9487 -7568.8261 294.0577 -9265.7749 -7563.9421 299.7847 -155.3580 -25.4325 30359.2622 4.1174 4.0161
TCL: Exiting due to exit command.
