Info: SIMULATION PARAMETERS:
Info: TIMESTEP               2
Info: NUMBER OF STEPS        0
Info: STEPS PER CYCLE        10
Info: PERIODIC CELL BASIS 1  37.133 0 0
Info: PERIODIC CELL BASIS 2  0 34.26 0
Info: PERIODIC CELL BASIS 3  0 0 34.471
Info: PERIODIC CELL CENTER   0 0 0
Info: WRAPPING WATERS AROUND PERIODIC BOUNDARIES ON OUTPUT.
Info: WRAPPING ALL CLUSTERS AROUND PERIODIC BOUNDARIES ON OUTPUT.
Info: FIRST LDB TIMESTEP     50
Info: LAST LDB TIMESTEP     -1
Info: HOM BACKGROUND SCALING 1
Info: PME BACKGROUND SCALING 1
Info: MIN ATOMS PER PATCH    40
Info: EMPTY PATCH LOAD       40 ATOMS
Info: INITIAL TEMPERATURE    300
Info: CENTER OF MASS MOVING INITIALLY? NO
Info: DIELECTRIC             1
Info: EXCLUDE                SCALED ONE-FOUR
Info: 1-4 ELECTROSTATICS SCALED BY 0.833333
Info: MODIFIED 1-4 VDW PARAMETERS WILL BE USED
Info: DCD FILENAME           mobley_1107178_equil.dcd
Info: DCD FREQUENCY          100000
Info: DCD FIRST STEP         100000
Info: DCD FILE WILL CONTAIN UNIT CELL DATA
Info: XST FILENAME           mobley_1107178_equil.xst
Info: XST FREQUENCY          100000
Info: NO VELOCITY DCD OUTPUT
Info: NO FORCE DCD OUTPUT
Info: OUTPUT FILENAME        mobley_1107178_equil
Info: BINARY OUTPUT FILES WILL BE USED
Info: RESTART FILENAME       mobley_1107178_equil.restart
Info: RESTART FREQUENCY      100000
Info: BINARY RESTART FILES WILL BE USED
Info: CUTOFF                 9
Info: PAIRLIST DISTANCE      11
Info: PAIRLIST SHRINK RATE   0.01
Info: PAIRLIST GROW RATE     0.01
Info: PAIRLIST TRIGGER       0.3
Info: PAIRLISTS PER CYCLE    2
Info: PAIRLISTS ENABLED
Info: MARGIN                 8
Info: HYDROGEN GROUP CUTOFF  2.5
Info: PATCH DIMENSION        21.5
Info: ENERGY OUTPUT STEPS    100000
Info: ENERGY EVALUATION STEPS    100000
Info: OUTPUT ENERGY PRECISION 4
Info: CROSSTERM ENERGY INCLUDED IN DIHEDRAL
Info: TIMING OUTPUT STEPS    1000000
Info: PRESSURE OUTPUT STEPS  100000
Info: FIXED ATOMS ACTIVE
Info: LANGEVIN DYNAMICS ACTIVE
Info: LANGEVIN TEMPERATURE   30
Info: LANGEVIN USING BBK INTEGRATOR
Info: LANGEVIN DAMPING COEFFICIENT IS 1 INVERSE PS
Info: LANGEVIN DYNAMICS APPLIED TO HYDROGENS
Info: LANGEVIN PISTON PRESSURE CONTROL ACTIVE
Info:        TARGET PRESSURE IS 1.01325 BAR
Info:     OSCILLATION PERIOD IS 50 FS
Info:             DECAY TIME IS 25 FS
Info:     PISTON TEMPERATURE IS 300 K
Info:       PRESSURE CONTROL IS GROUP-BASED
Info:    INITIAL STRAIN RATE IS 0 0 0
Info:       CELL FLUCTUATION IS ISOTROPIC
Info: PARTICLE MESH EWALD (PME) ACTIVE
Info: PME TOLERANCE               1e-06
Info: PME EWALD COEFFICIENT       0.348832
Info: PME INTERPOLATION ORDER     4
Info: PME GRID DIMENSIONS         40 36 36
Info: PME MAXIMUM GRID SPACING    1
Info: FULL ELECTROSTATIC EVALUATION FREQUENCY      2
Info: USING VERLET I (r-RESPA) MTS SCHEME.
Info: C1 SPLITTING OF LONG RANGE ELECTROSTATICS
Info: PLACING ATOMS IN PATCHES BY HYDROGEN GROUPS
Info: RIGID BONDS TO HYDROGEN : ALL
Info:         ERROR TOLERANCE : 1e-08
Info:          MAX ITERATIONS : 100
Info: RIGID WATER USING SETTLE ALGORITHM
Info: RANDOM NUMBER SEED     1744675922
Info: USE HYDROGEN BONDS?    NO
Info: Using AMBER format force field!
Info: AMBER PARM FILE        mobley_1107178.prmtop
Info: COORDINATE PDB         mobley_1107178.pdb
Info: Exclusions will be read from PARM file!
Info: SCNB (VDW SCALING)     2
Info: USING ARITHMETIC MEAN TO COMBINE L-J SIGMA PARAMETERS
Info: BINARY COORDINATES     mobley_1107178_min.coor
Info: SUMMARY OF PARAMETERS:
Info: 6 BONDS
Info: 6 ANGLES
Info:   6 HARMONIC
Info:   0 COSINE-BASED
Info: 1 DIHEDRAL
Info: 0 IMPROPER
Info: 0 CROSSTERM
Info: 0 VDW
Info: 21 VDW_PAIRS
Info: 0 NBTHOLE_PAIRS
Info: STRUCTURE SUMMARY:
Info: 2969 ATOMS
Info: 2968 BONDS
Info: 12 ANGLES
Info: 9 DIHEDRALS
Info: 0 IMPROPERS
Info: 0 CROSSTERMS
Info: 2989 EXCLUSIONS
Info: 8 FIXED ATOMS
Info: 2966 RIGID BONDS
Info: 5 RIGID BONDS BETWEEN FIXED ATOMS
Info: 5922 DEGREES OF FREEDOM
Info: 990 HYDROGEN GROUPS
Info: 4 ATOMS IN LARGEST HYDROGEN GROUP
Info: 990 MIGRATION GROUPS
Info: 4 ATOMS IN LARGEST MIGRATION GROUP
Info: 3 HYDROGEN GROUPS WITH ALL ATOMS FIXED
Info: TOTAL MASS = 17937.8 amu
Info: TOTAL CHARGE = 0.000100002 e
Info: MASS DENSITY = 0.679244 g/cm^3
Info: ATOM DENSITY = 0.0677032 atoms/A^3
Info: ADDED 0 IMPLICIT EXCLUSIONS
Info: NONBONDED TABLE R-SQUARED SPACING: 0.0625
Info: NONBONDED TABLE SIZE: 705 POINTS
Info: REMOVING COM VELOCITY -0.0729015 0.154948 -0.11059
TCL: Running for 100000 steps
ETITLE: TS BOND ANGLE DIHED IMPRP ELECT VDW BOUNDARY MISC KINETIC TOTAL TEMP POTENTIAL TOTAL3 TEMPAVG PRESSURE GPRESSURE VOLUME PRESSAVG GPRESSAVG
ENERGY: 0 0.0000 0.0000 0.0000 0.0000 -13717.7911 2376.6458 0.0000 0.0000 1734.2838 -9606.8616 294.7421 -11341.1453 -9606.5401 294.7421 163.7353 206.7568 43853.1989 163.7353 206.7568
ENERGY: 100000 0.0000 0.0000 0.0000 0.0000 -14334.1115 2493.3103 0.0000 0.0000 176.5409 -11664.2603 30.0032 -11840.8012 -11663.9390 30.9105 -230.1690 -189.1134 29662.9121 5.4416 5.4587
TCL: Running 100000 steps at 60 kelvin.
TCL: Setting parameter langevinTemp to 60
TCL: Running for 100000 steps
ETITLE: TS BOND ANGLE DIHED IMPRP ELECT VDW BOUNDARY MISC KINETIC TOTAL TEMP POTENTIAL TOTAL3 TEMPAVG PRESSURE GPRESSURE VOLUME PRESSAVG GPRESSAVG
ENERGY: 100000 0.0000 0.0000 0.0000 0.0000 -14334.1115 2493.3103 0.0000 0.0000 176.4535 -11664.3476 29.9883 -11840.8012 -11663.9650 29.9883 -236.2658 -189.0297 29662.9121 -236.2658 -189.0297
ENERGY: 200000 0.0000 0.0000 0.0000 0.0000 -14388.4208 2600.4609 0.0000 0.0000 351.1707 -11436.7892 59.6816 -11787.9599 -11435.7975 59.9328 1142.6578 1199.1678 28790.2430 3.4738 3.4972
TCL: Running 100000 steps at 90 kelvin.
TCL: Setting parameter langevinTemp to 90
TCL: Running for 100000 steps
ETITLE: TS BOND ANGLE DIHED IMPRP ELECT VDW BOUNDARY MISC KINETIC TOTAL TEMP POTENTIAL TOTAL3 TEMPAVG PRESSURE GPRESSURE VOLUME PRESSAVG GPRESSAVG
ENERGY: 200000 0.0000 0.0000 0.0000 0.0000 -14388.4208 2600.4609 0.0000 0.0000 350.9992 -11436.9607 59.6524 -11787.9599 -11436.2667 59.6524 1143.0970 1199.3269 28790.2430 1143.0970 1199.3269
ENERGY: 300000 0.0000 0.0000 0.0000 0.0000 -14054.3983 2387.2445 0.0000 0.0000 532.6769 -11134.4770 90.5286 -11667.1539 -11132.9594 89.9961 -316.6685 -243.7852 29163.2692 4.2458 4.1948
TCL: Running 100000 steps at 120 kelvin.
TCL: Setting parameter langevinTemp to 120
TCL: Running for 100000 steps
ETITLE: TS BOND ANGLE DIHED IMPRP ELECT VDW BOUNDARY MISC KINETIC TOTAL TEMP POTENTIAL TOTAL3 TEMPAVG PRESSURE GPRESSURE VOLUME PRESSAVG GPRESSAVG
ENERGY: 300000 0.0000 0.0000 0.0000 0.0000 -14054.3983 2387.2445 0.0000 0.0000 532.4115 -11134.7424 90.4835 -11667.1539 -11133.5517 90.4835 -292.8799 -243.6171 29163.2692 -292.8799 -243.6171
ENERGY: 400000 0.0000 0.0000 0.0000 0.0000 -13717.9348 2199.4621 0.0000 0.0000 694.7379 -10823.7348 118.0709 -11518.4727 -10822.4178 120.2313 -1290.6269 -1221.0843 29519.2332 4.5996 4.3981
TCL: Running 100000 steps at 150 kelvin.
TCL: Setting parameter langevinTemp to 150
TCL: Running for 100000 steps
ETITLE: TS BOND ANGLE DIHED IMPRP ELECT VDW BOUNDARY MISC KINETIC TOTAL TEMP POTENTIAL TOTAL3 TEMPAVG PRESSURE GPRESSURE VOLUME PRESSAVG GPRESSAVG
ENERGY: 400000 0.0000 0.0000 0.0000 0.0000 -13717.9348 2199.4621 0.0000 0.0000 694.3796 -10824.0931 118.0100 -11518.4727 -10822.5685 118.0100 -1279.4403 -1221.6257 29519.2332 -1279.4403 -1221.6257
ENERGY: 500000 0.0000 0.0000 0.0000 0.0000 -13542.5181 2167.0420 0.0000 0.0000 876.2158 -10499.2602 148.9132 -11375.4761 -10496.8151 149.8391 -861.0955 -834.7449 29073.9381 3.9919 4.0163
TCL: Running 100000 steps at 180 kelvin.
TCL: Setting parameter langevinTemp to 180
TCL: Running for 100000 steps
ETITLE: TS BOND ANGLE DIHED IMPRP ELECT VDW BOUNDARY MISC KINETIC TOTAL TEMP POTENTIAL TOTAL3 TEMPAVG PRESSURE GPRESSURE VOLUME PRESSAVG GPRESSAVG
ENERGY: 500000 0.0000 0.0000 0.0000 0.0000 -13542.5181 2167.0420 0.0000 0.0000 875.7920 -10499.6841 148.8411 -11375.4761 -10497.6293 148.8411 -881.2067 -833.9038 29073.9381 -881.2067 -833.9038
ENERGY: 600000 0.0000 0.0000 0.0000 0.0000 -13056.5958 1969.1175 0.0000 0.0000 1055.1595 -10032.3189 179.3247 -11087.4783 -10029.0033 180.0415 -1460.0377 -1393.2612 29304.2877 3.7058 3.7403
TCL: Running 100000 steps at 210 kelvin.
TCL: Setting parameter langevinTemp to 210
TCL: Running for 100000 steps
ETITLE: TS BOND ANGLE DIHED IMPRP ELECT VDW BOUNDARY MISC KINETIC TOTAL TEMP POTENTIAL TOTAL3 TEMPAVG PRESSURE GPRESSURE VOLUME PRESSAVG GPRESSAVG
ENERGY: 600000 0.0000 0.0000 0.0000 0.0000 -13056.5958 1969.1175 0.0000 0.0000 1054.6286 -10032.8498 179.2345 -11087.4783 -10030.6653 179.2345 -1446.1942 -1392.8467 29304.2877 -1446.1942 -1392.8467
ENERGY: 700000 0.0000 0.0000 0.0000 0.0000 -12472.0044 1879.6693 0.0000 0.0000 1264.1837 -9328.1514 214.8484 -10592.3351 -9324.9353 209.8562 -224.2992 -173.0782 29072.3554 4.1359 4.1146
TCL: Running 100000 steps at 240 kelvin.
TCL: Setting parameter langevinTemp to 240
TCL: Running for 100000 steps
ETITLE: TS BOND ANGLE DIHED IMPRP ELECT VDW BOUNDARY MISC KINETIC TOTAL TEMP POTENTIAL TOTAL3 TEMPAVG PRESSURE GPRESSURE VOLUME PRESSAVG GPRESSAVG
ENERGY: 700000 0.0000 0.0000 0.0000 0.0000 -12472.0044 1879.6693 0.0000 0.0000 1263.5775 -9328.7576 214.7454 -10592.3351 -9326.5106 214.7454 -246.8754 -173.3050 29072.3554 -246.8754 -173.3050
ENERGY: 800000 0.0000 0.0000 0.0000 0.0000 -11761.9389 1602.9215 0.0000 0.0000 1414.6434 -8744.3740 240.4191 -10159.0174 -8739.6305 240.2351 -1086.7745 -919.9743 29274.9329 3.5824 3.6217
TCL: Running 100000 steps at 270 kelvin.
TCL: Setting parameter langevinTemp to 270
TCL: Running for 100000 steps
ETITLE: TS BOND ANGLE DIHED IMPRP ELECT VDW BOUNDARY MISC KINETIC TOTAL TEMP POTENTIAL TOTAL3 TEMPAVG PRESSURE GPRESSURE VOLUME PRESSAVG GPRESSAVG
ENERGY: 800000 0.0000 0.0000 0.0000 0.0000 -11761.9389 1602.9215 0.0000 0.0000 1413.9384 -8745.0790 240.2993 -10159.0174 -8742.5155 240.2993 -1017.6065 -919.6068 29274.9329 -1017.6065 -919.6068
ENERGY: 900000 0.0000 0.0000 0.0000 0.0000 -11422.3576 1660.6809 0.0000 0.0000 1569.7732 -8191.9035 266.7834 -9761.6766 -8188.6282 269.5067 793.9646 926.4227 29185.3668 1.4684 1.4228
TCL: Running 1000000 steps at 300 kelvin.
TCL: Setting parameter langevinTemp to 300
TCL: Running for 1000000 steps
ETITLE: TS BOND ANGLE DIHED IMPRP ELECT VDW BOUNDARY MISC KINETIC TOTAL TEMP POTENTIAL TOTAL3 TEMPAVG PRESSURE GPRESSURE VOLUME PRESSAVG GPRESSAVG
ENERGY: 900000 0.0000 0.0000 0.0000 0.0000 -11422.3576 1660.6809 0.0000 0.0000 1568.9982 -8192.6784 266.6518 -9761.6766 -8189.5852 266.6518 826.2955 925.8403 29185.3668 826.2955 925.8403
ENERGY: 1100000 0.0000 0.0000 0.0000 0.0000 -10648.4409 1320.5616 0.0000 0.0000 1808.3157 -7519.5636 307.3238 -9327.8793 -7516.7440 300.2336 -939.5022 -883.3985 30786.9132 1.8660 1.8890
ENERGY: 1300000 0.0000 0.0000 0.0000 0.0000 -10775.7681 1483.4357 0.0000 0.0000 1777.4296 -7514.9029 302.0747 -9292.3324 -7511.2081 300.1391 418.0073 497.7312 30539.4796 3.2798 3.2844
ENERGY: 1500000 0.0000 0.0000 0.0000 0.0000 -10789.8441 1444.4893 0.0000 0.0000 1766.8464 -7578.5084 300.2761 -9345.3548 -7575.2026 300.6135 -26.8410 33.5948 30788.4304 1.6836 1.6718
ENERGY: 1700000 0.0000 0.0000 0.0000 0.0000 -10807.6206 1439.5397 0.0000 0.0000 1769.0581 -7599.0228 300.6520 -9368.0809 -7596.6026 299.9279 -264.9412 -234.3457 30909.0659 4.4981 4.3258
ENERGY: 1900000 0.0000 0.0000 0.0000 0.0000 -10844.2190 1479.9506 0.0000 0.0000 1763.9183 -7600.3501 299.7785 -9364.2684 -7595.9509 300.2087 118.8097 171.4428 30723.0623 2.4455 2.5747
TCL: Exiting due to exit command.
