Info: SIMULATION PARAMETERS:
Info: TIMESTEP               2
Info: NUMBER OF STEPS        0
Info: STEPS PER CYCLE        10
Info: PERIODIC CELL BASIS 1  37.968 0 0
Info: PERIODIC CELL BASIS 2  0 35.847 0
Info: PERIODIC CELL BASIS 3  0 0 31.349
Info: PERIODIC CELL CENTER   0 0 0
Info: WRAPPING WATERS AROUND PERIODIC BOUNDARIES ON OUTPUT.
Info: WRAPPING ALL CLUSTERS AROUND PERIODIC BOUNDARIES ON OUTPUT.
Info: FIRST LDB TIMESTEP     50
Info: LAST LDB TIMESTEP     -1
Info: HOM BACKGROUND SCALING 1
Info: PME BACKGROUND SCALING 1
Info: MIN ATOMS PER PATCH    40
Info: EMPTY PATCH LOAD       40 ATOMS
Info: INITIAL TEMPERATURE    300
Info: CENTER OF MASS MOVING INITIALLY? NO
Info: DIELECTRIC             1
Info: EXCLUDE                SCALED ONE-FOUR
Info: 1-4 ELECTROSTATICS SCALED BY 0.833333
Info: MODIFIED 1-4 VDW PARAMETERS WILL BE USED
Info: DCD FILENAME           mobley_4219614_equil.dcd
Info: DCD FREQUENCY          100000
Info: DCD FIRST STEP         100000
Info: DCD FILE WILL CONTAIN UNIT CELL DATA
Info: XST FILENAME           mobley_4219614_equil.xst
Info: XST FREQUENCY          100000
Info: NO VELOCITY DCD OUTPUT
Info: NO FORCE DCD OUTPUT
Info: OUTPUT FILENAME        mobley_4219614_equil
Info: BINARY OUTPUT FILES WILL BE USED
Info: RESTART FILENAME       mobley_4219614_equil.restart
Info: RESTART FREQUENCY      100000
Info: BINARY RESTART FILES WILL BE USED
Info: CUTOFF                 9
Info: PAIRLIST DISTANCE      11
Info: PAIRLIST SHRINK RATE   0.01
Info: PAIRLIST GROW RATE     0.01
Info: PAIRLIST TRIGGER       0.3
Info: PAIRLISTS PER CYCLE    2
Info: PAIRLISTS ENABLED
Info: MARGIN                 8
Info: HYDROGEN GROUP CUTOFF  2.5
Info: PATCH DIMENSION        21.5
Info: ENERGY OUTPUT STEPS    100000
Info: ENERGY EVALUATION STEPS    100000
Info: OUTPUT ENERGY PRECISION 4
Info: CROSSTERM ENERGY INCLUDED IN DIHEDRAL
Info: TIMING OUTPUT STEPS    1000000
Info: PRESSURE OUTPUT STEPS  100000
Info: FIXED ATOMS ACTIVE
Info: LANGEVIN DYNAMICS ACTIVE
Info: LANGEVIN TEMPERATURE   30
Info: LANGEVIN USING BBK INTEGRATOR
Info: LANGEVIN DAMPING COEFFICIENT IS 1 INVERSE PS
Info: LANGEVIN DYNAMICS APPLIED TO HYDROGENS
Info: LANGEVIN PISTON PRESSURE CONTROL ACTIVE
Info:        TARGET PRESSURE IS 1.01325 BAR
Info:     OSCILLATION PERIOD IS 50 FS
Info:             DECAY TIME IS 25 FS
Info:     PISTON TEMPERATURE IS 300 K
Info:       PRESSURE CONTROL IS GROUP-BASED
Info:    INITIAL STRAIN RATE IS 0 0 0
Info:       CELL FLUCTUATION IS ISOTROPIC
Info: PARTICLE MESH EWALD (PME) ACTIVE
Info: PME TOLERANCE               1e-06
Info: PME EWALD COEFFICIENT       0.348832
Info: PME INTERPOLATION ORDER     4
Info: PME GRID DIMENSIONS         40 36 32
Info: PME MAXIMUM GRID SPACING    1
Info: FULL ELECTROSTATIC EVALUATION FREQUENCY      2
Info: USING VERLET I (r-RESPA) MTS SCHEME.
Info: C1 SPLITTING OF LONG RANGE ELECTROSTATICS
Info: PLACING ATOMS IN PATCHES BY HYDROGEN GROUPS
Info: RIGID BONDS TO HYDROGEN : ALL
Info:         ERROR TOLERANCE : 1e-08
Info:          MAX ITERATIONS : 100
Info: RIGID WATER USING SETTLE ALGORITHM
Info: RANDOM NUMBER SEED     1743720461
Info: USE HYDROGEN BONDS?    NO
Info: Using AMBER format force field!
Info: AMBER PARM FILE        mobley_4219614.prmtop
Info: COORDINATE PDB         mobley_4219614.pdb
Info: Exclusions will be read from PARM file!
Info: SCNB (VDW SCALING)     2
Info: USING ARITHMETIC MEAN TO COMBINE L-J SIGMA PARAMETERS
Info: BINARY COORDINATES     mobley_4219614_min.coor
Info: SUMMARY OF PARAMETERS:
Info: 5 BONDS
Info: 3 ANGLES
Info:   3 HARMONIC
Info:   0 COSINE-BASED
Info: 2 DIHEDRAL
Info: 0 IMPROPER
Info: 0 CROSSTERM
Info: 0 VDW
Info: 15 VDW_PAIRS
Info: 0 NBTHOLE_PAIRS
Info: STRUCTURE SUMMARY:
Info: 2931 ATOMS
Info: 2931 BONDS
Info: 18 ANGLES
Info: 30 DIHEDRALS
Info: 0 IMPROPERS
Info: 0 CROSSTERMS
Info: 2970 EXCLUSIONS
Info: 12 FIXED ATOMS
Info: 2921 RIGID BONDS
Info: 2 RIGID BONDS BETWEEN FIXED ATOMS
Info: 5838 DEGREES OF FREEDOM
Info: 983 HYDROGEN GROUPS
Info: 3 ATOMS IN LARGEST HYDROGEN GROUP
Info: 983 MIGRATION GROUPS
Info: 3 ATOMS IN LARGEST MIGRATION GROUP
Info: 10 HYDROGEN GROUPS WITH ALL ATOMS FIXED
Info: TOTAL MASS = 17745.4 amu
Info: TOTAL CHARGE = -9.99942e-05 e
Info: MASS DENSITY = 0.69064 g/cm^3
Info: ATOM DENSITY = 0.0686944 atoms/A^3
Info: ADDED 0 IMPLICIT EXCLUSIONS
Info: NONBONDED TABLE R-SQUARED SPACING: 0.0625
Info: NONBONDED TABLE SIZE: 705 POINTS
Info: REMOVING COM VELOCITY 0.26235 -0.0882107 -0.0999425
TCL: Running for 100000 steps
ETITLE: TS BOND ANGLE DIHED IMPRP ELECT VDW BOUNDARY MISC KINETIC TOTAL TEMP POTENTIAL TOTAL3 TEMPAVG PRESSURE GPRESSURE VOLUME PRESSAVG GPRESSAVG
ENERGY: 0 0.0000 0.0000 0.0000 0.0000 -13593.8214 2343.1240 0.0000 0.0000 1706.4802 -9544.2173 294.1898 -11250.6975 -9543.8836 294.1898 121.3132 165.0821 42667.2084 121.3132 165.0821
ENERGY: 100000 0.0000 0.0000 0.0000 0.0000 -14211.0008 2501.3675 0.0000 0.0000 178.1438 -11531.4895 30.7112 -11709.6334 -11531.0349 30.8824 210.7965 267.7362 28628.5275 3.5630 3.5998
TCL: Running 100000 steps at 60 kelvin.
TCL: Setting parameter langevinTemp to 60
TCL: Running for 100000 steps
ETITLE: TS BOND ANGLE DIHED IMPRP ELECT VDW BOUNDARY MISC KINETIC TOTAL TEMP POTENTIAL TOTAL3 TEMPAVG PRESSURE GPRESSURE VOLUME PRESSAVG GPRESSAVG
ENERGY: 100000 0.0000 0.0000 0.0000 0.0000 -14211.0008 2501.3675 0.0000 0.0000 178.0558 -11531.5776 30.6960 -11709.6334 -11531.1724 30.6960 217.0786 267.7003 28628.5275 217.0786 267.7003
ENERGY: 200000 0.0000 0.0000 0.0000 0.0000 -14231.1115 2621.2852 0.0000 0.0000 350.0616 -11259.7647 60.3491 -11609.8263 -11259.3358 60.0153 1868.3229 1945.0709 28134.5510 4.6889 4.7705
TCL: Running 100000 steps at 90 kelvin.
TCL: Setting parameter langevinTemp to 90
TCL: Running for 100000 steps
ETITLE: TS BOND ANGLE DIHED IMPRP ELECT VDW BOUNDARY MISC KINETIC TOTAL TEMP POTENTIAL TOTAL3 TEMPAVG PRESSURE GPRESSURE VOLUME PRESSAVG GPRESSAVG
ENERGY: 200000 0.0000 0.0000 0.0000 0.0000 -14231.1115 2621.2852 0.0000 0.0000 349.8825 -11259.9438 60.3182 -11609.8263 -11259.3624 60.3182 1885.0989 1945.0331 28134.5510 1885.0989 1945.0331
ENERGY: 300000 0.0000 0.0000 0.0000 0.0000 -13918.7806 2440.9816 0.0000 0.0000 499.0680 -10978.7311 86.0371 -11477.7991 -10977.4315 89.8047 756.7238 783.3064 28563.2394 5.3658 5.4225
TCL: Running 100000 steps at 120 kelvin.
TCL: Setting parameter langevinTemp to 120
TCL: Running for 100000 steps
ETITLE: TS BOND ANGLE DIHED IMPRP ELECT VDW BOUNDARY MISC KINETIC TOTAL TEMP POTENTIAL TOTAL3 TEMPAVG PRESSURE GPRESSURE VOLUME PRESSAVG GPRESSAVG
ENERGY: 300000 0.0000 0.0000 0.0000 0.0000 -13918.7806 2440.9816 0.0000 0.0000 498.8083 -10978.9908 85.9924 -11477.7991 -10978.2371 85.9924 731.2810 784.0887 28563.2394 731.2810 784.0887
ENERGY: 400000 0.0000 0.0000 0.0000 0.0000 -13693.0541 2308.0769 0.0000 0.0000 685.8672 -10699.1100 118.2405 -11384.9771 -10697.6844 119.9673 -172.7818 -102.9770 29161.0793 4.7810 4.6636
TCL: Running 100000 steps at 150 kelvin.
TCL: Setting parameter langevinTemp to 150
TCL: Running for 100000 steps
ETITLE: TS BOND ANGLE DIHED IMPRP ELECT VDW BOUNDARY MISC KINETIC TOTAL TEMP POTENTIAL TOTAL3 TEMPAVG PRESSURE GPRESSURE VOLUME PRESSAVG GPRESSAVG
ENERGY: 400000 0.0000 0.0000 0.0000 0.0000 -13693.0541 2308.0769 0.0000 0.0000 685.5033 -10699.4739 118.1778 -11384.9771 -10698.2438 118.1778 -159.3033 -103.2957 29161.0793 -159.3033 -103.2957
ENERGY: 500000 0.0000 0.0000 0.0000 0.0000 -13477.7129 2243.9313 0.0000 0.0000 860.2146 -10373.5670 148.2972 -11233.7816 -10370.9653 150.0320 -130.1119 -78.9027 28830.5828 4.2612 4.2774
TCL: Running 100000 steps at 180 kelvin.
TCL: Setting parameter langevinTemp to 180
TCL: Running for 100000 steps
ETITLE: TS BOND ANGLE DIHED IMPRP ELECT VDW BOUNDARY MISC KINETIC TOTAL TEMP POTENTIAL TOTAL3 TEMPAVG PRESSURE GPRESSURE VOLUME PRESSAVG GPRESSAVG
ENERGY: 500000 0.0000 0.0000 0.0000 0.0000 -13477.7129 2243.9313 0.0000 0.0000 859.7809 -10374.0007 148.2225 -11233.7816 -10372.5026 148.2225 -128.9813 -78.4079 28830.5828 -128.9813 -78.4079
ENERGY: 600000 0.0000 0.0000 0.0000 0.0000 -12955.2787 2001.8311 0.0000 0.0000 1060.7844 -9892.6631 182.8746 -10953.4476 -9889.8483 180.1840 -1057.8031 -926.6420 29050.4060 2.5935 2.6073
TCL: Running 100000 steps at 210 kelvin.
TCL: Setting parameter langevinTemp to 210
TCL: Running for 100000 steps
ETITLE: TS BOND ANGLE DIHED IMPRP ELECT VDW BOUNDARY MISC KINETIC TOTAL TEMP POTENTIAL TOTAL3 TEMPAVG PRESSURE GPRESSURE VOLUME PRESSAVG GPRESSAVG
ENERGY: 600000 0.0000 0.0000 0.0000 0.0000 -12955.2787 2001.8311 0.0000 0.0000 1060.2686 -9893.1789 182.7857 -10953.4476 -9890.9310 182.7857 -980.6989 -927.1989 29050.4060 -980.6989 -927.1989
ENERGY: 700000 0.0000 0.0000 0.0000 0.0000 -12295.9387 1867.9987 0.0000 0.0000 1194.6400 -9233.2999 205.9507 -10427.9400 -9229.9083 209.8774 12.5780 27.7625 28801.6993 2.8864 2.8870
TCL: Running 100000 steps at 240 kelvin.
TCL: Setting parameter langevinTemp to 240
TCL: Running for 100000 steps
ETITLE: TS BOND ANGLE DIHED IMPRP ELECT VDW BOUNDARY MISC KINETIC TOTAL TEMP POTENTIAL TOTAL3 TEMPAVG PRESSURE GPRESSURE VOLUME PRESSAVG GPRESSAVG
ENERGY: 700000 0.0000 0.0000 0.0000 0.0000 -12295.9387 1867.9987 0.0000 0.0000 1194.0130 -9233.9270 205.8426 -10427.9400 -9231.9137 205.8426 -45.0848 29.9297 28801.6993 -45.0848 29.9297
ENERGY: 800000 0.0000 0.0000 0.0000 0.0000 -11811.6619 1732.6052 0.0000 0.0000 1394.9170 -8684.1398 240.4776 -10079.0567 -8680.2487 239.7030 105.7255 151.2076 28751.2407 2.4840 2.5425
TCL: Running 100000 steps at 270 kelvin.
TCL: Setting parameter langevinTemp to 270
TCL: Running for 100000 steps
ETITLE: TS BOND ANGLE DIHED IMPRP ELECT VDW BOUNDARY MISC KINETIC TOTAL TEMP POTENTIAL TOTAL3 TEMPAVG PRESSURE GPRESSURE VOLUME PRESSAVG GPRESSAVG
ENERGY: 800000 0.0000 0.0000 0.0000 0.0000 -11811.6619 1732.6052 0.0000 0.0000 1394.2390 -8684.8178 240.3607 -10079.0567 -8682.5040 240.3607 56.2275 151.6288 28751.2407 56.2275 151.6288
ENERGY: 900000 0.0000 0.0000 0.0000 0.0000 -11088.6075 1549.4292 0.0000 0.0000 1571.4718 -7967.7066 270.9149 -9539.1783 -7965.1956 269.4961 454.6231 530.6595 29254.6607 3.2884 3.1533
TCL: Running 1000000 steps at 300 kelvin.
TCL: Setting parameter langevinTemp to 300
TCL: Running for 1000000 steps
ETITLE: TS BOND ANGLE DIHED IMPRP ELECT VDW BOUNDARY MISC KINETIC TOTAL TEMP POTENTIAL TOTAL3 TEMPAVG PRESSURE GPRESSURE VOLUME PRESSAVG GPRESSAVG
ENERGY: 900000 0.0000 0.0000 0.0000 0.0000 -11088.6075 1549.4292 0.0000 0.0000 1570.6155 -7968.5628 270.7673 -9539.1783 -7965.9353 270.7673 463.0204 529.8948 29254.6607 463.0204 529.8948
ENERGY: 1100000 0.0000 0.0000 0.0000 0.0000 -10651.6662 1459.4670 0.0000 0.0000 1708.7472 -7483.4520 294.5806 -9192.1992 -7481.1343 299.9572 281.8467 377.9280 30112.4769 3.4607 3.4111
ENERGY: 1300000 0.0000 0.0000 0.0000 0.0000 -10638.6776 1405.4423 0.0000 0.0000 1740.2981 -7492.9372 300.0198 -9233.2353 -7488.2175 300.3349 -274.4206 -200.7029 30435.0721 2.2007 2.4311
ENERGY: 1500000 0.0000 0.0000 0.0000 0.0000 -10552.0729 1379.5620 0.0000 0.0000 1732.9913 -7439.5196 298.7602 -9172.5109 -7434.1530 300.6885 -558.4753 -454.5986 30745.7397 4.5150 4.4917
ENERGY: 1700000 0.0000 0.0000 0.0000 0.0000 -10582.6517 1378.6973 0.0000 0.0000 1742.8549 -7461.0994 300.4606 -9203.9543 -7459.8704 300.4989 -462.3649 -431.3277 30559.0043 2.3177 2.2104
ENERGY: 1900000 0.0000 0.0000 0.0000 0.0000 -10599.8748 1406.7894 0.0000 0.0000 1776.4131 -7416.6723 306.2459 -9193.0854 -7414.9931 300.3771 -275.9241 -189.0183 30729.8082 3.0698 3.1610
TCL: Exiting due to exit command.
