Info: SIMULATION PARAMETERS:
Info: TIMESTEP               2
Info: NUMBER OF STEPS        0
Info: STEPS PER CYCLE        10
Info: PERIODIC CELL BASIS 1  37.435 0 0
Info: PERIODIC CELL BASIS 2  0 36.032 0
Info: PERIODIC CELL BASIS 3  0 0 32.492
Info: PERIODIC CELL CENTER   0 0 0
Info: WRAPPING WATERS AROUND PERIODIC BOUNDARIES ON OUTPUT.
Info: WRAPPING ALL CLUSTERS AROUND PERIODIC BOUNDARIES ON OUTPUT.
Info: FIRST LDB TIMESTEP     50
Info: LAST LDB TIMESTEP     -1
Info: HOM BACKGROUND SCALING 1
Info: PME BACKGROUND SCALING 1
Info: MIN ATOMS PER PATCH    40
Info: EMPTY PATCH LOAD       40 ATOMS
Info: INITIAL TEMPERATURE    300
Info: CENTER OF MASS MOVING INITIALLY? NO
Info: DIELECTRIC             1
Info: EXCLUDE                SCALED ONE-FOUR
Info: 1-4 ELECTROSTATICS SCALED BY 0.833333
Info: MODIFIED 1-4 VDW PARAMETERS WILL BE USED
Info: DCD FILENAME           mobley_1755375_equil.dcd
Info: DCD FREQUENCY          100000
Info: DCD FIRST STEP         100000
Info: DCD FILE WILL CONTAIN UNIT CELL DATA
Info: XST FILENAME           mobley_1755375_equil.xst
Info: XST FREQUENCY          100000
Info: NO VELOCITY DCD OUTPUT
Info: NO FORCE DCD OUTPUT
Info: OUTPUT FILENAME        mobley_1755375_equil
Info: BINARY OUTPUT FILES WILL BE USED
Info: RESTART FILENAME       mobley_1755375_equil.restart
Info: RESTART FREQUENCY      100000
Info: BINARY RESTART FILES WILL BE USED
Info: CUTOFF                 9
Info: PAIRLIST DISTANCE      11
Info: PAIRLIST SHRINK RATE   0.01
Info: PAIRLIST GROW RATE     0.01
Info: PAIRLIST TRIGGER       0.3
Info: PAIRLISTS PER CYCLE    2
Info: PAIRLISTS ENABLED
Info: MARGIN                 8
Info: HYDROGEN GROUP CUTOFF  2.5
Info: PATCH DIMENSION        21.5
Info: ENERGY OUTPUT STEPS    100000
Info: ENERGY EVALUATION STEPS    100000
Info: OUTPUT ENERGY PRECISION 4
Info: CROSSTERM ENERGY INCLUDED IN DIHEDRAL
Info: TIMING OUTPUT STEPS    1000000
Info: PRESSURE OUTPUT STEPS  100000
Info: FIXED ATOMS ACTIVE
Info: LANGEVIN DYNAMICS ACTIVE
Info: LANGEVIN TEMPERATURE   30
Info: LANGEVIN USING BBK INTEGRATOR
Info: LANGEVIN DAMPING COEFFICIENT IS 1 INVERSE PS
Info: LANGEVIN DYNAMICS APPLIED TO HYDROGENS
Info: LANGEVIN PISTON PRESSURE CONTROL ACTIVE
Info:        TARGET PRESSURE IS 1.01325 BAR
Info:     OSCILLATION PERIOD IS 50 FS
Info:             DECAY TIME IS 25 FS
Info:     PISTON TEMPERATURE IS 300 K
Info:       PRESSURE CONTROL IS GROUP-BASED
Info:    INITIAL STRAIN RATE IS 0 0 0
Info:       CELL FLUCTUATION IS ISOTROPIC
Info: PARTICLE MESH EWALD (PME) ACTIVE
Info: PME TOLERANCE               1e-06
Info: PME EWALD COEFFICIENT       0.348832
Info: PME INTERPOLATION ORDER     4
Info: PME GRID DIMENSIONS         40 40 36
Info: PME MAXIMUM GRID SPACING    1
Info: FULL ELECTROSTATIC EVALUATION FREQUENCY      2
Info: USING VERLET I (r-RESPA) MTS SCHEME.
Info: C1 SPLITTING OF LONG RANGE ELECTROSTATICS
Info: PLACING ATOMS IN PATCHES BY HYDROGEN GROUPS
Info: RIGID BONDS TO HYDROGEN : ALL
Info:         ERROR TOLERANCE : 1e-08
Info:          MAX ITERATIONS : 100
Info: RIGID WATER USING SETTLE ALGORITHM
Info: RANDOM NUMBER SEED     1743742866
Info: USE HYDROGEN BONDS?    NO
Info: Using AMBER format force field!
Info: AMBER PARM FILE        mobley_1755375.prmtop
Info: COORDINATE PDB         mobley_1755375.pdb
Info: Exclusions will be read from PARM file!
Info: SCNB (VDW SCALING)     2
Info: USING ARITHMETIC MEAN TO COMBINE L-J SIGMA PARAMETERS
Info: BINARY COORDINATES     mobley_1755375_min.coor
Info: SUMMARY OF PARAMETERS:
Info: 8 BONDS
Info: 7 ANGLES
Info:   7 HARMONIC
Info:   0 COSINE-BASED
Info: 4 DIHEDRAL
Info: 0 IMPROPER
Info: 0 CROSSTERM
Info: 0 VDW
Info: 28 VDW_PAIRS
Info: 0 NBTHOLE_PAIRS
Info: STRUCTURE SUMMARY:
Info: 2962 ATOMS
Info: 2962 BONDS
Info: 31 ANGLES
Info: 44 DIHEDRALS
Info: 0 IMPROPERS
Info: 0 CROSSTERMS
Info: 3028 EXCLUSIONS
Info: 19 FIXED ATOMS
Info: 2953 RIGID BONDS
Info: 10 RIGID BONDS BETWEEN FIXED ATOMS
Info: 5886 DEGREES OF FREEDOM
Info: 990 HYDROGEN GROUPS
Info: 4 ATOMS IN LARGEST HYDROGEN GROUP
Info: 990 MIGRATION GROUPS
Info: 4 ATOMS IN LARGEST MIGRATION GROUP
Info: 9 HYDROGEN GROUPS WITH ALL ATOMS FIXED
Info: TOTAL MASS = 17795.9 amu
Info: TOTAL CHARGE = -9.99272e-05 e
Info: MASS DENSITY = 0.674273 g/cm^3
Info: ATOM DENSITY = 0.0675838 atoms/A^3
Info: ADDED 0 IMPLICIT EXCLUSIONS
Info: NONBONDED TABLE R-SQUARED SPACING: 0.0625
Info: NONBONDED TABLE SIZE: 705 POINTS
Info: REMOVING COM VELOCITY -0.020364 0.18663 -0.244996
TCL: Running for 100000 steps
ETITLE: TS BOND ANGLE DIHED IMPRP ELECT VDW BOUNDARY MISC KINETIC TOTAL TEMP POTENTIAL TOTAL3 TEMPAVG PRESSURE GPRESSURE VOLUME PRESSAVG GPRESSAVG
ENERGY: 0 0.0000 0.0000 0.0000 0.0000 -13717.3437 2391.2998 0.0000 0.0000 1788.2165 -9537.8273 305.7667 -11326.0439 -9537.4641 305.7667 343.2730 383.1879 43827.0915 343.2730 383.1879
ENERGY: 100000 0.0000 0.0000 0.0000 0.0000 -14211.8010 2396.8531 0.0000 0.0000 170.2795 -11644.6684 29.1160 -11814.9479 -11644.3630 30.8764 -584.2969 -519.8442 28749.1599 3.9622 3.9715
TCL: Running 100000 steps at 60 kelvin.
TCL: Setting parameter langevinTemp to 60
TCL: Running for 100000 steps
ETITLE: TS BOND ANGLE DIHED IMPRP ELECT VDW BOUNDARY MISC KINETIC TOTAL TEMP POTENTIAL TOTAL3 TEMPAVG PRESSURE GPRESSURE VOLUME PRESSAVG GPRESSAVG
ENERGY: 100000 0.0000 0.0000 0.0000 0.0000 -14211.8010 2396.8531 0.0000 0.0000 170.1928 -11644.7551 29.1012 -11814.9479 -11644.4315 29.1012 -570.6912 -519.8888 28749.1599 -570.6912 -519.8888
ENERGY: 200000 0.0000 0.0000 0.0000 0.0000 -14257.2658 2494.0866 0.0000 0.0000 355.6142 -11407.5649 60.8064 -11763.1792 -11406.8406 60.0048 504.7467 561.9039 28483.3445 6.0030 6.0347
TCL: Running 100000 steps at 90 kelvin.
TCL: Setting parameter langevinTemp to 90
TCL: Running for 100000 steps
ETITLE: TS BOND ANGLE DIHED IMPRP ELECT VDW BOUNDARY MISC KINETIC TOTAL TEMP POTENTIAL TOTAL3 TEMPAVG PRESSURE GPRESSURE VOLUME PRESSAVG GPRESSAVG
ENERGY: 200000 0.0000 0.0000 0.0000 0.0000 -14257.2658 2494.0866 0.0000 0.0000 355.4366 -11407.7425 60.7760 -11763.1792 -11406.9718 60.7760 506.0247 561.6851 28483.3445 506.0247 561.6851
ENERGY: 300000 0.0000 0.0000 0.0000 0.0000 -14178.9289 2518.0905 0.0000 0.0000 502.6782 -11158.1602 85.9528 -11660.8384 -11157.6664 90.0000 1278.3665 1301.6165 28210.1573 5.0001 4.9606
TCL: Running 100000 steps at 120 kelvin.
TCL: Setting parameter langevinTemp to 120
TCL: Running for 100000 steps
ETITLE: TS BOND ANGLE DIHED IMPRP ELECT VDW BOUNDARY MISC KINETIC TOTAL TEMP POTENTIAL TOTAL3 TEMPAVG PRESSURE GPRESSURE VOLUME PRESSAVG GPRESSAVG
ENERGY: 300000 0.0000 0.0000 0.0000 0.0000 -14178.9289 2518.0905 0.0000 0.0000 502.4146 -11158.4238 85.9078 -11660.8384 -11157.4930 85.9078 1251.5021 1301.4403 28210.1573 1251.5021 1301.4403
ENERGY: 400000 0.0000 0.0000 0.0000 0.0000 -13855.0594 2333.4862 0.0000 0.0000 705.7705 -10815.8027 120.6795 -11521.5732 -10814.9229 119.8808 70.1878 146.2327 28677.6296 3.6165 3.7619
TCL: Running 100000 steps at 150 kelvin.
TCL: Setting parameter langevinTemp to 150
TCL: Running for 100000 steps
ETITLE: TS BOND ANGLE DIHED IMPRP ELECT VDW BOUNDARY MISC KINETIC TOTAL TEMP POTENTIAL TOTAL3 TEMPAVG PRESSURE GPRESSURE VOLUME PRESSAVG GPRESSAVG
ENERGY: 400000 0.0000 0.0000 0.0000 0.0000 -13855.0594 2333.4862 0.0000 0.0000 705.4193 -10816.1539 120.6195 -11521.5732 -10814.8746 120.6195 87.1682 144.7739 28677.6296 87.1682 144.7739
ENERGY: 500000 0.0000 0.0000 0.0000 0.0000 -13690.9358 2333.2199 0.0000 0.0000 888.2475 -10469.4684 151.8812 -11357.7159 -10467.0913 150.0806 317.6129 403.7738 29251.9263 4.7005 4.7071
TCL: Running 100000 steps at 180 kelvin.
TCL: Setting parameter langevinTemp to 180
TCL: Running for 100000 steps
ETITLE: TS BOND ANGLE DIHED IMPRP ELECT VDW BOUNDARY MISC KINETIC TOTAL TEMP POTENTIAL TOTAL3 TEMPAVG PRESSURE GPRESSURE VOLUME PRESSAVG GPRESSAVG
ENERGY: 500000 0.0000 0.0000 0.0000 0.0000 -13690.9358 2333.2199 0.0000 0.0000 887.8390 -10469.8769 151.8114 -11357.7159 -10468.1765 151.8114 358.5322 403.4268 29251.9263 358.5322 403.4268
ENERGY: 600000 0.0000 0.0000 0.0000 0.0000 -13078.8683 2078.8924 0.0000 0.0000 1005.1575 -9994.8184 171.8716 -10999.9759 -9992.6097 180.1129 -183.6107 -124.2837 29057.2263 4.4544 4.5838
TCL: Running 100000 steps at 210 kelvin.
TCL: Setting parameter langevinTemp to 210
TCL: Running for 100000 steps
ETITLE: TS BOND ANGLE DIHED IMPRP ELECT VDW BOUNDARY MISC KINETIC TOTAL TEMP POTENTIAL TOTAL3 TEMPAVG PRESSURE GPRESSURE VOLUME PRESSAVG GPRESSAVG
ENERGY: 600000 0.0000 0.0000 0.0000 0.0000 -13078.8683 2078.8924 0.0000 0.0000 1004.6407 -9995.3352 171.7833 -10999.9759 -9993.5630 171.7833 -175.4866 -124.2300 29057.2263 -175.4866 -124.2300
ENERGY: 700000 0.0000 0.0000 0.0000 0.0000 -12582.8956 1959.8191 0.0000 0.0000 1206.3411 -9416.7354 206.2720 -10623.0764 -9414.7863 210.1374 541.6757 598.3728 28631.7903 5.2213 5.2324
TCL: Running 100000 steps at 240 kelvin.
TCL: Setting parameter langevinTemp to 240
TCL: Running for 100000 steps
ETITLE: TS BOND ANGLE DIHED IMPRP ELECT VDW BOUNDARY MISC KINETIC TOTAL TEMP POTENTIAL TOTAL3 TEMPAVG PRESSURE GPRESSURE VOLUME PRESSAVG GPRESSAVG
ENERGY: 700000 0.0000 0.0000 0.0000 0.0000 -12582.8956 1959.8191 0.0000 0.0000 1205.7254 -9417.3510 206.1667 -10623.0764 -9415.7879 206.1667 527.6810 597.6803 28631.7903 527.6810 597.6803
ENERGY: 800000 0.0000 0.0000 0.0000 0.0000 -11867.8034 1731.1507 0.0000 0.0000 1409.4686 -8727.1840 241.0047 -10136.6527 -8722.6724 240.2636 30.9351 93.5418 29242.0157 3.0364 2.9810
TCL: Running 100000 steps at 270 kelvin.
TCL: Setting parameter langevinTemp to 270
TCL: Running for 100000 steps
ETITLE: TS BOND ANGLE DIHED IMPRP ELECT VDW BOUNDARY MISC KINETIC TOTAL TEMP POTENTIAL TOTAL3 TEMPAVG PRESSURE GPRESSURE VOLUME PRESSAVG GPRESSAVG
ENERGY: 800000 0.0000 0.0000 0.0000 0.0000 -11867.8034 1731.1507 0.0000 0.0000 1408.7912 -8727.8615 240.8889 -10136.6527 -8725.2200 240.8889 12.6761 93.2509 29242.0157 12.6761 93.2509
ENERGY: 900000 0.0000 0.0000 0.0000 0.0000 -11286.3239 1522.4059 0.0000 0.0000 1569.5036 -8194.4144 268.3691 -9763.9179 -8191.2653 270.1838 -672.1912 -603.9504 30269.6102 4.5281 4.4778
TCL: Running 1000000 steps at 300 kelvin.
TCL: Setting parameter langevinTemp to 300
TCL: Running for 1000000 steps
ETITLE: TS BOND ANGLE DIHED IMPRP ELECT VDW BOUNDARY MISC KINETIC TOTAL TEMP POTENTIAL TOTAL3 TEMPAVG PRESSURE GPRESSURE VOLUME PRESSAVG GPRESSAVG
ENERGY: 900000 0.0000 0.0000 0.0000 0.0000 -11286.3239 1522.4059 0.0000 0.0000 1568.7166 -8195.2014 268.2345 -9763.9179 -8192.8455 268.2345 -683.9934 -605.7420 30269.6102 -683.9934 -605.7420
ENERGY: 1100000 0.0000 0.0000 0.0000 0.0000 -10798.9774 1469.3159 0.0000 0.0000 1761.6159 -7568.0455 301.2183 -9329.6614 -7565.6794 300.3153 241.6354 262.4789 30572.9094 2.7109 2.7940
ENERGY: 1300000 0.0000 0.0000 0.0000 0.0000 -10841.3020 1442.3832 0.0000 0.0000 1699.6043 -7699.3145 290.6149 -9398.9188 -7696.4112 300.0385 26.1552 57.7607 30069.0885 2.5215 2.5926
ENERGY: 1500000 0.0000 0.0000 0.0000 0.0000 -10721.1558 1404.3027 0.0000 0.0000 1784.8581 -7531.9950 305.1925 -9316.8531 -7529.7376 299.4303 -451.5706 -367.5985 30953.5122 3.4519 3.3695
ENERGY: 1700000 0.0000 0.0000 0.0000 0.0000 -10771.3131 1422.0805 0.0000 0.0000 1748.0872 -7601.1454 298.9050 -9349.2326 -7598.7882 299.8245 -248.3775 -215.0783 30693.2701 3.0646 3.0438
ENERGY: 1900000 0.0000 0.0000 0.0000 0.0000 -10811.0747 1488.4932 0.0000 0.0000 1792.2094 -7530.3721 306.4495 -9322.5815 -7525.6154 300.0716 222.6660 339.4268 30604.4824 3.9109 4.0949
TCL: Exiting due to exit command.
