Info: SIMULATION PARAMETERS:
Info: TIMESTEP               2
Info: NUMBER OF STEPS        0
Info: STEPS PER CYCLE        10
Info: PERIODIC CELL BASIS 1  37.133 0 0
Info: PERIODIC CELL BASIS 2  0 36.611 0
Info: PERIODIC CELL BASIS 3  0 0 33.088
Info: PERIODIC CELL CENTER   0 0 0
Info: WRAPPING WATERS AROUND PERIODIC BOUNDARIES ON OUTPUT.
Info: WRAPPING ALL CLUSTERS AROUND PERIODIC BOUNDARIES ON OUTPUT.
Info: FIRST LDB TIMESTEP     50
Info: LAST LDB TIMESTEP     -1
Info: HOM BACKGROUND SCALING 1
Info: PME BACKGROUND SCALING 1
Info: MIN ATOMS PER PATCH    40
Info: EMPTY PATCH LOAD       40 ATOMS
Info: INITIAL TEMPERATURE    300
Info: CENTER OF MASS MOVING INITIALLY? NO
Info: DIELECTRIC             1
Info: EXCLUDE                SCALED ONE-FOUR
Info: 1-4 ELECTROSTATICS SCALED BY 0.833333
Info: MODIFIED 1-4 VDW PARAMETERS WILL BE USED
Info: DCD FILENAME           mobley_3053621_equil.dcd
Info: DCD FREQUENCY          100000
Info: DCD FIRST STEP         100000
Info: DCD FILE WILL CONTAIN UNIT CELL DATA
Info: XST FILENAME           mobley_3053621_equil.xst
Info: XST FREQUENCY          100000
Info: NO VELOCITY DCD OUTPUT
Info: NO FORCE DCD OUTPUT
Info: OUTPUT FILENAME        mobley_3053621_equil
Info: BINARY OUTPUT FILES WILL BE USED
Info: RESTART FILENAME       mobley_3053621_equil.restart
Info: RESTART FREQUENCY      100000
Info: BINARY RESTART FILES WILL BE USED
Info: CUTOFF                 9
Info: PAIRLIST DISTANCE      11
Info: PAIRLIST SHRINK RATE   0.01
Info: PAIRLIST GROW RATE     0.01
Info: PAIRLIST TRIGGER       0.3
Info: PAIRLISTS PER CYCLE    2
Info: PAIRLISTS ENABLED
Info: MARGIN                 8
Info: HYDROGEN GROUP CUTOFF  2.5
Info: PATCH DIMENSION        21.5
Info: ENERGY OUTPUT STEPS    100000
Info: ENERGY EVALUATION STEPS    100000
Info: OUTPUT ENERGY PRECISION 4
Info: CROSSTERM ENERGY INCLUDED IN DIHEDRAL
Info: TIMING OUTPUT STEPS    1000000
Info: PRESSURE OUTPUT STEPS  100000
Info: FIXED ATOMS ACTIVE
Info: LANGEVIN DYNAMICS ACTIVE
Info: LANGEVIN TEMPERATURE   30
Info: LANGEVIN USING BBK INTEGRATOR
Info: LANGEVIN DAMPING COEFFICIENT IS 1 INVERSE PS
Info: LANGEVIN DYNAMICS APPLIED TO HYDROGENS
Info: LANGEVIN PISTON PRESSURE CONTROL ACTIVE
Info:        TARGET PRESSURE IS 1.01325 BAR
Info:     OSCILLATION PERIOD IS 50 FS
Info:             DECAY TIME IS 25 FS
Info:     PISTON TEMPERATURE IS 300 K
Info:       PRESSURE CONTROL IS GROUP-BASED
Info:    INITIAL STRAIN RATE IS 0 0 0
Info:       CELL FLUCTUATION IS ISOTROPIC
Info: PARTICLE MESH EWALD (PME) ACTIVE
Info: PME TOLERANCE               1e-06
Info: PME EWALD COEFFICIENT       0.348832
Info: PME INTERPOLATION ORDER     4
Info: PME GRID DIMENSIONS         40 40 36
Info: PME MAXIMUM GRID SPACING    1
Info: FULL ELECTROSTATIC EVALUATION FREQUENCY      2
Info: USING VERLET I (r-RESPA) MTS SCHEME.
Info: C1 SPLITTING OF LONG RANGE ELECTROSTATICS
Info: PLACING ATOMS IN PATCHES BY HYDROGEN GROUPS
Info: RIGID BONDS TO HYDROGEN : ALL
Info:         ERROR TOLERANCE : 1e-08
Info:          MAX ITERATIONS : 100
Info: RIGID WATER USING SETTLE ALGORITHM
Info: RANDOM NUMBER SEED     1743686649
Info: USE HYDROGEN BONDS?    NO
Info: Using AMBER format force field!
Info: AMBER PARM FILE        mobley_3053621.prmtop
Info: COORDINATE PDB         mobley_3053621.pdb
Info: Exclusions will be read from PARM file!
Info: SCNB (VDW SCALING)     2
Info: USING ARITHMETIC MEAN TO COMBINE L-J SIGMA PARAMETERS
Info: BINARY COORDINATES     mobley_3053621_min.coor
Info: SUMMARY OF PARAMETERS:
Info: 4 BONDS
Info: 2 ANGLES
Info:   2 HARMONIC
Info:   0 COSINE-BASED
Info: 2 DIHEDRAL
Info: 0 IMPROPER
Info: 0 CROSSTERM
Info: 0 VDW
Info: 10 VDW_PAIRS
Info: 0 NBTHOLE_PAIRS
Info: STRUCTURE SUMMARY:
Info: 2958 ATOMS
Info: 2958 BONDS
Info: 18 ANGLES
Info: 30 DIHEDRALS
Info: 0 IMPROPERS
Info: 0 CROSSTERMS
Info: 2997 EXCLUSIONS
Info: 12 FIXED ATOMS
Info: 2952 RIGID BONDS
Info: 6 RIGID BONDS BETWEEN FIXED ATOMS
Info: 5892 DEGREES OF FREEDOM
Info: 988 HYDROGEN GROUPS
Info: 3 ATOMS IN LARGEST HYDROGEN GROUP
Info: 988 MIGRATION GROUPS
Info: 3 ATOMS IN LARGEST MIGRATION GROUP
Info: 6 HYDROGEN GROUPS WITH ALL ATOMS FIXED
Info: TOTAL MASS = 17769.8 amu
Info: TOTAL CHARGE = -0.000100002 e
Info: MASS DENSITY = 0.655994 g/cm^3
Info: ATOM DENSITY = 0.0657591 atoms/A^3
Info: ADDED 0 IMPLICIT EXCLUSIONS
Info: NONBONDED TABLE R-SQUARED SPACING: 0.0625
Info: NONBONDED TABLE SIZE: 705 POINTS
Info: REMOVING COM VELOCITY 0.0404338 -0.133264 0.210499
TCL: Running for 100000 steps
ETITLE: TS BOND ANGLE DIHED IMPRP ELECT VDW BOUNDARY MISC KINETIC TOTAL TEMP POTENTIAL TOTAL3 TEMPAVG PRESSURE GPRESSURE VOLUME PRESSAVG GPRESSAVG
ENERGY: 0 0.0000 0.0000 0.0000 0.0000 -13689.2414 2416.8034 0.0000 0.0000 1754.2711 -9518.1668 299.6570 -11272.4380 -9517.8522 299.6570 541.9656 572.5551 44982.3506 541.9656 572.5551
ENERGY: 100000 0.0000 0.0000 0.0000 0.0000 -14297.8298 2504.2704 0.0000 0.0000 176.2549 -11617.3044 30.1071 -11793.5593 -11616.7694 30.9580 106.1783 162.0218 29263.7846 2.9541 2.9134
TCL: Running 100000 steps at 60 kelvin.
TCL: Setting parameter langevinTemp to 60
TCL: Running for 100000 steps
ETITLE: TS BOND ANGLE DIHED IMPRP ELECT VDW BOUNDARY MISC KINETIC TOTAL TEMP POTENTIAL TOTAL3 TEMPAVG PRESSURE GPRESSURE VOLUME PRESSAVG GPRESSAVG
ENERGY: 100000 0.0000 0.0000 0.0000 0.0000 -14297.8298 2504.2704 0.0000 0.0000 176.1689 -11617.3904 30.0924 -11793.5593 -11617.0165 30.0924 100.0181 162.0168 29263.7846 100.0181 162.0168
ENERGY: 200000 0.0000 0.0000 0.0000 0.0000 -14069.3398 2362.9046 0.0000 0.0000 356.1099 -11350.3253 60.8291 -11706.4352 -11349.3783 59.9736 -489.2607 -456.5625 28990.6352 4.1544 4.1777
TCL: Running 100000 steps at 90 kelvin.
TCL: Setting parameter langevinTemp to 90
TCL: Running for 100000 steps
ETITLE: TS BOND ANGLE DIHED IMPRP ELECT VDW BOUNDARY MISC KINETIC TOTAL TEMP POTENTIAL TOTAL3 TEMPAVG PRESSURE GPRESSURE VOLUME PRESSAVG GPRESSAVG
ENERGY: 200000 0.0000 0.0000 0.0000 0.0000 -14069.3398 2362.9046 0.0000 0.0000 355.9350 -11350.5002 60.7993 -11706.4352 -11349.7820 60.7993 -506.4530 -456.6536 28990.6352 -506.4530 -456.6536
ENERGY: 300000 0.0000 0.0000 0.0000 0.0000 -13964.5266 2328.0056 0.0000 0.0000 536.8512 -11099.6698 91.7026 -11636.5210 -11097.3772 89.7091 -468.8353 -442.1121 28950.8895 3.7374 3.7110
TCL: Running 100000 steps at 120 kelvin.
TCL: Setting parameter langevinTemp to 120
TCL: Running for 100000 steps
ETITLE: TS BOND ANGLE DIHED IMPRP ELECT VDW BOUNDARY MISC KINETIC TOTAL TEMP POTENTIAL TOTAL3 TEMPAVG PRESSURE GPRESSURE VOLUME PRESSAVG GPRESSAVG
ENERGY: 300000 0.0000 0.0000 0.0000 0.0000 -13964.5266 2328.0056 0.0000 0.0000 536.5860 -11099.9350 91.6573 -11636.5210 -11098.7078 91.6573 -491.8123 -440.7214 28950.8895 -491.8123 -440.7214
ENERGY: 400000 0.0000 0.0000 0.0000 0.0000 -13860.8170 2389.1302 0.0000 0.0000 705.6556 -10766.0312 120.5370 -11471.6869 -10764.6751 119.9447 464.0982 512.9081 29052.0606 5.3742 5.2936
TCL: Running 100000 steps at 150 kelvin.
TCL: Setting parameter langevinTemp to 150
TCL: Running for 100000 steps
ETITLE: TS BOND ANGLE DIHED IMPRP ELECT VDW BOUNDARY MISC KINETIC TOTAL TEMP POTENTIAL TOTAL3 TEMPAVG PRESSURE GPRESSURE VOLUME PRESSAVG GPRESSAVG
ENERGY: 400000 0.0000 0.0000 0.0000 0.0000 -13860.8170 2389.1302 0.0000 0.0000 705.2904 -10766.3965 120.4746 -11471.6869 -10765.1291 120.4746 463.1205 512.9628 29052.0606 463.1205 512.9628
ENERGY: 500000 0.0000 0.0000 0.0000 0.0000 -13626.2272 2278.7286 0.0000 0.0000 879.2434 -10468.2552 150.1885 -11347.4986 -10466.8434 150.1894 -37.7221 29.9246 28920.7920 3.8191 3.7304
TCL: Running 100000 steps at 180 kelvin.
TCL: Setting parameter langevinTemp to 180
TCL: Running for 100000 steps
ETITLE: TS BOND ANGLE DIHED IMPRP ELECT VDW BOUNDARY MISC KINETIC TOTAL TEMP POTENTIAL TOTAL3 TEMPAVG PRESSURE GPRESSURE VOLUME PRESSAVG GPRESSAVG
ENERGY: 500000 0.0000 0.0000 0.0000 0.0000 -13626.2272 2278.7286 0.0000 0.0000 878.8084 -10468.6902 150.1142 -11347.4986 -10466.4485 150.1142 -33.0125 28.7111 28920.7920 -33.0125 28.7111
ENERGY: 600000 0.0000 0.0000 0.0000 0.0000 -13059.3519 2017.1231 0.0000 0.0000 1089.5349 -9952.6938 186.1096 -11042.2287 -9948.9958 180.1064 -971.6890 -885.1465 29270.2463 4.7146 4.6882
TCL: Running 100000 steps at 210 kelvin.
TCL: Setting parameter langevinTemp to 210
TCL: Running for 100000 steps
ETITLE: TS BOND ANGLE DIHED IMPRP ELECT VDW BOUNDARY MISC KINETIC TOTAL TEMP POTENTIAL TOTAL3 TEMPAVG PRESSURE GPRESSURE VOLUME PRESSAVG GPRESSAVG
ENERGY: 600000 0.0000 0.0000 0.0000 0.0000 -13059.3519 2017.1231 0.0000 0.0000 1089.0156 -9953.2131 186.0209 -11042.2287 -9951.1814 186.0209 -944.0015 -884.6717 29270.2463 -944.0015 -884.6717
ENERGY: 700000 0.0000 0.0000 0.0000 0.0000 -12287.2900 1728.8508 0.0000 0.0000 1214.9851 -9343.4541 207.5385 -10558.4392 -9342.2385 210.1399 -1604.2943 -1511.2987 29489.8763 4.6731 4.7021
TCL: Running 100000 steps at 240 kelvin.
TCL: Setting parameter langevinTemp to 240
TCL: Running for 100000 steps
ETITLE: TS BOND ANGLE DIHED IMPRP ELECT VDW BOUNDARY MISC KINETIC TOTAL TEMP POTENTIAL TOTAL3 TEMPAVG PRESSURE GPRESSURE VOLUME PRESSAVG GPRESSAVG
ENERGY: 700000 0.0000 0.0000 0.0000 0.0000 -12287.2900 1728.8508 0.0000 0.0000 1214.3737 -9344.0656 207.4340 -10558.4392 -9342.0303 207.4340 -1591.7772 -1512.3552 29489.8763 -1591.7772 -1512.3552
ENERGY: 800000 0.0000 0.0000 0.0000 0.0000 -11821.1794 1713.4317 0.0000 0.0000 1354.8149 -8752.9328 231.4236 -10107.7477 -8751.0419 239.9262 114.6039 231.2458 28846.7962 3.4657 3.3658
TCL: Running 100000 steps at 270 kelvin.
TCL: Setting parameter langevinTemp to 270
TCL: Running for 100000 steps
ETITLE: TS BOND ANGLE DIHED IMPRP ELECT VDW BOUNDARY MISC KINETIC TOTAL TEMP POTENTIAL TOTAL3 TEMPAVG PRESSURE GPRESSURE VOLUME PRESSAVG GPRESSAVG
ENERGY: 800000 0.0000 0.0000 0.0000 0.0000 -11821.1794 1713.4317 0.0000 0.0000 1354.1249 -8753.6228 231.3057 -10107.7477 -8751.9061 231.3057 146.1804 231.4568 28846.7962 146.1804 231.4568
ENERGY: 900000 0.0000 0.0000 0.0000 0.0000 -11131.6544 1475.0405 0.0000 0.0000 1572.7939 -8083.8201 268.6578 -9656.6140 -8082.9819 269.7000 -855.9151 -783.7423 30017.6032 4.6354 4.5442
TCL: Running 1000000 steps at 300 kelvin.
TCL: Setting parameter langevinTemp to 300
TCL: Running for 1000000 steps
ETITLE: TS BOND ANGLE DIHED IMPRP ELECT VDW BOUNDARY MISC KINETIC TOTAL TEMP POTENTIAL TOTAL3 TEMPAVG PRESSURE GPRESSURE VOLUME PRESSAVG GPRESSAVG
ENERGY: 900000 0.0000 0.0000 0.0000 0.0000 -11131.6544 1475.0405 0.0000 0.0000 1572.0068 -8084.6072 268.5234 -9656.6140 -8082.0972 268.5234 -885.8294 -784.4102 30017.6032 -885.8294 -784.4102
ENERGY: 1100000 0.0000 0.0000 0.0000 0.0000 -10661.0844 1401.4932 0.0000 0.0000 1763.0995 -7496.4917 301.1650 -9259.5912 -7494.7770 299.4646 -519.7656 -374.8920 30779.2885 3.6264 3.6560
ENERGY: 1300000 0.0000 0.0000 0.0000 0.0000 -10722.6679 1424.7276 0.0000 0.0000 1774.5637 -7523.3766 303.1232 -9297.9403 -7520.4343 300.5546 21.7255 111.1655 30102.6433 2.8540 2.8673
ENERGY: 1500000 0.0000 0.0000 0.0000 0.0000 -10612.5696 1392.3412 0.0000 0.0000 1803.2064 -7417.0220 308.0159 -9220.2284 -7410.9273 300.5413 -162.0697 -102.0415 30778.8588 3.5568 3.6124
ENERGY: 1700000 0.0000 0.0000 0.0000 0.0000 -10811.6117 1420.0723 0.0000 0.0000 1772.1554 -7619.3841 302.7119 -9391.5394 -7613.9214 300.1594 -535.5905 -487.0315 30974.9713 3.5216 3.6307
ENERGY: 1900000 0.0000 0.0000 0.0000 0.0000 -10791.0365 1432.4013 0.0000 0.0000 1770.5880 -7588.0472 302.4441 -9358.6353 -7584.7052 300.7510 -298.5631 -185.0479 30450.8134 1.5657 1.6763
TCL: Exiting due to exit command.
