Info: SIMULATION PARAMETERS:
Info: TIMESTEP               2
Info: NUMBER OF STEPS        0
Info: STEPS PER CYCLE        10
Info: PERIODIC CELL BASIS 1  35.01 0 0
Info: PERIODIC CELL BASIS 2  0 35.411 0
Info: PERIODIC CELL BASIS 3  0 0 35.723
Info: PERIODIC CELL CENTER   0 0 0
Info: WRAPPING WATERS AROUND PERIODIC BOUNDARIES ON OUTPUT.
Info: WRAPPING ALL CLUSTERS AROUND PERIODIC BOUNDARIES ON OUTPUT.
Info: FIRST LDB TIMESTEP     50
Info: LAST LDB TIMESTEP     -1
Info: HOM BACKGROUND SCALING 1
Info: PME BACKGROUND SCALING 1
Info: MIN ATOMS PER PATCH    40
Info: EMPTY PATCH LOAD       40 ATOMS
Info: INITIAL TEMPERATURE    300
Info: CENTER OF MASS MOVING INITIALLY? NO
Info: DIELECTRIC             1
Info: EXCLUDE                SCALED ONE-FOUR
Info: 1-4 ELECTROSTATICS SCALED BY 0.833333
Info: MODIFIED 1-4 VDW PARAMETERS WILL BE USED
Info: DCD FILENAME           mobley_7047032_equil.dcd
Info: DCD FREQUENCY          100000
Info: DCD FIRST STEP         100000
Info: DCD FILE WILL CONTAIN UNIT CELL DATA
Info: XST FILENAME           mobley_7047032_equil.xst
Info: XST FREQUENCY          100000
Info: NO VELOCITY DCD OUTPUT
Info: NO FORCE DCD OUTPUT
Info: OUTPUT FILENAME        mobley_7047032_equil
Info: BINARY OUTPUT FILES WILL BE USED
Info: RESTART FILENAME       mobley_7047032_equil.restart
Info: RESTART FREQUENCY      100000
Info: BINARY RESTART FILES WILL BE USED
Info: CUTOFF                 9
Info: PAIRLIST DISTANCE      11
Info: PAIRLIST SHRINK RATE   0.01
Info: PAIRLIST GROW RATE     0.01
Info: PAIRLIST TRIGGER       0.3
Info: PAIRLISTS PER CYCLE    2
Info: PAIRLISTS ENABLED
Info: MARGIN                 8
Info: HYDROGEN GROUP CUTOFF  2.5
Info: PATCH DIMENSION        21.5
Info: ENERGY OUTPUT STEPS    100000
Info: ENERGY EVALUATION STEPS    100000
Info: OUTPUT ENERGY PRECISION 4
Info: CROSSTERM ENERGY INCLUDED IN DIHEDRAL
Info: TIMING OUTPUT STEPS    1000000
Info: PRESSURE OUTPUT STEPS  100000
Info: FIXED ATOMS ACTIVE
Info: LANGEVIN DYNAMICS ACTIVE
Info: LANGEVIN TEMPERATURE   30
Info: LANGEVIN USING BBK INTEGRATOR
Info: LANGEVIN DAMPING COEFFICIENT IS 1 INVERSE PS
Info: LANGEVIN DYNAMICS APPLIED TO HYDROGENS
Info: LANGEVIN PISTON PRESSURE CONTROL ACTIVE
Info:        TARGET PRESSURE IS 1.01325 BAR
Info:     OSCILLATION PERIOD IS 50 FS
Info:             DECAY TIME IS 25 FS
Info:     PISTON TEMPERATURE IS 300 K
Info:       PRESSURE CONTROL IS GROUP-BASED
Info:    INITIAL STRAIN RATE IS 0 0 0
Info:       CELL FLUCTUATION IS ISOTROPIC
Info: PARTICLE MESH EWALD (PME) ACTIVE
Info: PME TOLERANCE               1e-06
Info: PME EWALD COEFFICIENT       0.348832
Info: PME INTERPOLATION ORDER     4
Info: PME GRID DIMENSIONS         36 36 36
Info: PME MAXIMUM GRID SPACING    1
Info: FULL ELECTROSTATIC EVALUATION FREQUENCY      2
Info: USING VERLET I (r-RESPA) MTS SCHEME.
Info: C1 SPLITTING OF LONG RANGE ELECTROSTATICS
Info: PLACING ATOMS IN PATCHES BY HYDROGEN GROUPS
Info: RIGID BONDS TO HYDROGEN : ALL
Info:         ERROR TOLERANCE : 1e-08
Info:          MAX ITERATIONS : 100
Info: RIGID WATER USING SETTLE ALGORITHM
Info: RANDOM NUMBER SEED     1743731315
Info: USE HYDROGEN BONDS?    NO
Info: Using AMBER format force field!
Info: AMBER PARM FILE        mobley_7047032.prmtop
Info: COORDINATE PDB         mobley_7047032.pdb
Info: Exclusions will be read from PARM file!
Info: SCNB (VDW SCALING)     2
Info: USING ARITHMETIC MEAN TO COMBINE L-J SIGMA PARAMETERS
Info: BINARY COORDINATES     mobley_7047032_min.coor
Info: SUMMARY OF PARAMETERS:
Info: 5 BONDS
Info: 4 ANGLES
Info:   4 HARMONIC
Info:   0 COSINE-BASED
Info: 3 DIHEDRAL
Info: 0 IMPROPER
Info: 0 CROSSTERM
Info: 0 VDW
Info: 15 VDW_PAIRS
Info: 0 NBTHOLE_PAIRS
Info: STRUCTURE SUMMARY:
Info: 2993 ATOMS
Info: 2992 BONDS
Info: 24 ANGLES
Info: 36 DIHEDRALS
Info: 0 IMPROPERS
Info: 0 CROSSTERMS
Info: 3043 EXCLUSIONS
Info: 14 FIXED ATOMS
Info: 2988 RIGID BONDS
Info: 9 RIGID BONDS BETWEEN FIXED ATOMS
Info: 5958 DEGREES OF FREEDOM
Info: 998 HYDROGEN GROUPS
Info: 4 ATOMS IN LARGEST HYDROGEN GROUP
Info: 998 MIGRATION GROUPS
Info: 4 ATOMS IN LARGEST MIGRATION GROUP
Info: 5 HYDROGEN GROUPS WITH ALL ATOMS FIXED
Info: TOTAL MASS = 17982.5 amu
Info: TOTAL CHARGE = 0.000100009 e
Info: MASS DENSITY = 0.674264 g/cm^3
Info: ATOM DENSITY = 0.0675816 atoms/A^3
Info: ADDED 0 IMPLICIT EXCLUSIONS
Info: NONBONDED TABLE R-SQUARED SPACING: 0.0625
Info: NONBONDED TABLE SIZE: 705 POINTS
Info: REMOVING COM VELOCITY -0.155811 0.172989 -0.138104
TCL: Running for 100000 steps
ETITLE: TS BOND ANGLE DIHED IMPRP ELECT VDW BOUNDARY MISC KINETIC TOTAL TEMP POTENTIAL TOTAL3 TEMPAVG PRESSURE GPRESSURE VOLUME PRESSAVG GPRESSAVG
ENERGY: 0 0.0000 0.0000 0.0000 0.0000 -13888.1136 2468.5703 0.0000 0.0000 1763.2461 -9656.2972 297.8536 -11419.5433 -9655.9465 297.8536 504.1429 540.6539 44287.2002 504.1429 540.6539
ENERGY: 100000 0.0000 0.0000 0.0000 0.0000 -14486.4728 2543.9531 0.0000 0.0000 178.3137 -11764.2060 30.1214 -11942.5197 -11763.9411 30.9366 29.6564 81.0877 29402.1001 3.6437 3.6566
TCL: Running 100000 steps at 60 kelvin.
TCL: Setting parameter langevinTemp to 60
TCL: Running for 100000 steps
ETITLE: TS BOND ANGLE DIHED IMPRP ELECT VDW BOUNDARY MISC KINETIC TOTAL TEMP POTENTIAL TOTAL3 TEMPAVG PRESSURE GPRESSURE VOLUME PRESSAVG GPRESSAVG
ENERGY: 100000 0.0000 0.0000 0.0000 0.0000 -14486.4728 2543.9531 0.0000 0.0000 178.2228 -11764.2969 30.1060 -11942.5197 -11763.9336 30.1060 24.5639 80.8968 29402.1001 24.5639 80.8968
ENERGY: 200000 0.0000 0.0000 0.0000 0.0000 -14285.2124 2432.0802 0.0000 0.0000 365.8205 -11487.3117 61.7957 -11853.1323 -11486.5991 59.7989 -377.7643 -337.9697 29256.4477 4.6840 4.6713
TCL: Running 100000 steps at 90 kelvin.
TCL: Setting parameter langevinTemp to 90
TCL: Running for 100000 steps
ETITLE: TS BOND ANGLE DIHED IMPRP ELECT VDW BOUNDARY MISC KINETIC TOTAL TEMP POTENTIAL TOTAL3 TEMPAVG PRESSURE GPRESSURE VOLUME PRESSAVG GPRESSAVG
ENERGY: 200000 0.0000 0.0000 0.0000 0.0000 -14285.2124 2432.0802 0.0000 0.0000 365.6417 -11487.4905 61.7655 -11853.1323 -11486.7195 61.7655 -390.0207 -337.9335 29256.4477 -390.0207 -337.9335
ENERGY: 300000 0.0000 0.0000 0.0000 0.0000 -14157.7721 2401.8797 0.0000 0.0000 530.4711 -11225.4213 89.6090 -11755.8924 -11223.8050 89.7302 -230.2680 -209.0680 29338.6919 4.8488 4.8792
TCL: Running 100000 steps at 120 kelvin.
TCL: Setting parameter langevinTemp to 120
TCL: Running for 100000 steps
ETITLE: TS BOND ANGLE DIHED IMPRP ELECT VDW BOUNDARY MISC KINETIC TOTAL TEMP POTENTIAL TOTAL3 TEMPAVG PRESSURE GPRESSURE VOLUME PRESSAVG GPRESSAVG
ENERGY: 300000 0.0000 0.0000 0.0000 0.0000 -14157.7721 2401.8797 0.0000 0.0000 530.2085 -11225.6839 89.5646 -11755.8924 -11224.5214 89.5646 -258.1564 -209.3064 29338.6919 -258.1564 -209.3064
ENERGY: 400000 0.0000 0.0000 0.0000 0.0000 -13948.3730 2362.6647 0.0000 0.0000 713.6511 -10872.0572 120.5524 -11585.7083 -10869.9248 119.6842 120.2511 180.5804 29119.3121 3.6440 3.5322
TCL: Running 100000 steps at 150 kelvin.
TCL: Setting parameter langevinTemp to 150
TCL: Running for 100000 steps
ETITLE: TS BOND ANGLE DIHED IMPRP ELECT VDW BOUNDARY MISC KINETIC TOTAL TEMP POTENTIAL TOTAL3 TEMPAVG PRESSURE GPRESSURE VOLUME PRESSAVG GPRESSAVG
ENERGY: 400000 0.0000 0.0000 0.0000 0.0000 -13948.3730 2362.6647 0.0000 0.0000 713.2982 -10872.4101 120.4928 -11585.7083 -10870.6771 120.4928 124.4344 180.7534 29119.3121 124.4344 180.7534
ENERGY: 500000 0.0000 0.0000 0.0000 0.0000 -13776.1463 2329.1283 0.0000 0.0000 906.3094 -10540.7086 153.0969 -11447.0180 -10539.4607 149.7282 309.2865 315.9211 29340.3498 2.4463 2.5358
TCL: Running 100000 steps at 180 kelvin.
TCL: Setting parameter langevinTemp to 180
TCL: Running for 100000 steps
ETITLE: TS BOND ANGLE DIHED IMPRP ELECT VDW BOUNDARY MISC KINETIC TOTAL TEMP POTENTIAL TOTAL3 TEMPAVG PRESSURE GPRESSURE VOLUME PRESSAVG GPRESSAVG
ENERGY: 500000 0.0000 0.0000 0.0000 0.0000 -13776.1463 2329.1283 0.0000 0.0000 905.8723 -10541.1457 153.0231 -11447.0180 -10539.4506 153.0231 264.1208 314.9959 29340.3498 264.1208 314.9959
ENERGY: 600000 0.0000 0.0000 0.0000 0.0000 -13184.1422 2075.0973 0.0000 0.0000 1063.6361 -10045.4087 179.6731 -11109.0448 -10042.7642 180.3182 -547.4920 -474.6651 29407.2543 2.9198 2.7562
TCL: Running 100000 steps at 210 kelvin.
TCL: Setting parameter langevinTemp to 210
TCL: Running for 100000 steps
ETITLE: TS BOND ANGLE DIHED IMPRP ELECT VDW BOUNDARY MISC KINETIC TOTAL TEMP POTENTIAL TOTAL3 TEMPAVG PRESSURE GPRESSURE VOLUME PRESSAVG GPRESSAVG
ENERGY: 600000 0.0000 0.0000 0.0000 0.0000 -13184.1422 2075.0973 0.0000 0.0000 1063.0816 -10045.9632 179.5794 -11109.0448 -10043.9787 179.5794 -541.4407 -474.5879 29407.2543 -541.4407 -474.5879
ENERGY: 700000 0.0000 0.0000 0.0000 0.0000 -12547.6664 1866.6973 0.0000 0.0000 1254.6785 -9426.2906 211.9446 -10680.9691 -9422.8855 209.9955 -705.8889 -649.6447 29617.3231 4.2873 4.4116
TCL: Running 100000 steps at 240 kelvin.
TCL: Setting parameter langevinTemp to 240
TCL: Running for 100000 steps
ETITLE: TS BOND ANGLE DIHED IMPRP ELECT VDW BOUNDARY MISC KINETIC TOTAL TEMP POTENTIAL TOTAL3 TEMPAVG PRESSURE GPRESSURE VOLUME PRESSAVG GPRESSAVG
ENERGY: 700000 0.0000 0.0000 0.0000 0.0000 -12547.6664 1866.6973 0.0000 0.0000 1254.0826 -9426.8865 211.8439 -10680.9691 -9424.3516 211.8439 -723.4232 -649.3816 29617.3231 -723.4232 -649.3816
ENERGY: 800000 0.0000 0.0000 0.0000 0.0000 -12013.9484 1770.8304 0.0000 0.0000 1415.5611 -8827.5569 239.1214 -10243.1180 -8823.7668 239.3444 267.7664 326.0107 29511.9072 3.4654 3.4439
TCL: Running 100000 steps at 270 kelvin.
TCL: Setting parameter langevinTemp to 270
TCL: Running for 100000 steps
ETITLE: TS BOND ANGLE DIHED IMPRP ELECT VDW BOUNDARY MISC KINETIC TOTAL TEMP POTENTIAL TOTAL3 TEMPAVG PRESSURE GPRESSURE VOLUME PRESSAVG GPRESSAVG
ENERGY: 800000 0.0000 0.0000 0.0000 0.0000 -12013.9484 1770.8304 0.0000 0.0000 1414.8435 -8828.2745 239.0002 -10243.1180 -8826.3168 239.0002 241.3263 326.3452 29511.9072 241.3263 326.3452
ENERGY: 900000 0.0000 0.0000 0.0000 0.0000 -11314.0697 1542.4633 0.0000 0.0000 1613.3301 -8158.2763 272.5293 -9771.6064 -8156.5189 270.8504 -499.3517 -403.0359 30267.6667 3.2076 3.2893
TCL: Running 1000000 steps at 300 kelvin.
TCL: Setting parameter langevinTemp to 300
TCL: Running for 1000000 steps
ETITLE: TS BOND ANGLE DIHED IMPRP ELECT VDW BOUNDARY MISC KINETIC TOTAL TEMP POTENTIAL TOTAL3 TEMPAVG PRESSURE GPRESSURE VOLUME PRESSAVG GPRESSAVG
ENERGY: 900000 0.0000 0.0000 0.0000 0.0000 -11314.0697 1542.4633 0.0000 0.0000 1612.5247 -8159.0817 272.3932 -9771.6064 -8157.1888 272.3932 -478.6504 -404.1026 30267.6667 -478.6504 -404.1026
ENERGY: 1100000 0.0000 0.0000 0.0000 0.0000 -10710.8332 1323.9721 0.0000 0.0000 1726.8249 -7660.0361 291.7012 -9386.8610 -7657.6978 300.0133 -1044.3257 -977.7631 31136.8121 3.1317 3.0757
ENERGY: 1300000 0.0000 0.0000 0.0000 0.0000 -10888.9962 1450.8294 0.0000 0.0000 1793.1892 -7644.9777 302.9117 -9438.1669 -7641.7064 300.2092 -275.0954 -236.5133 30946.8747 3.4221 3.3837
ENERGY: 1500000 0.0000 0.0000 0.0000 0.0000 -10775.3002 1423.5277 0.0000 0.0000 1737.2679 -7614.5046 293.4652 -9351.7725 -7610.7588 300.4578 -358.0518 -228.2170 31089.5344 2.0073 2.0798
ENERGY: 1700000 0.0000 0.0000 0.0000 0.0000 -10724.9569 1370.7195 0.0000 0.0000 1711.5092 -7642.7283 289.1140 -9354.2374 -7637.9375 300.9188 -616.1715 -531.6141 31011.6752 3.0063 2.8149
ENERGY: 1900000 0.0000 0.0000 0.0000 0.0000 -10691.1888 1349.9527 0.0000 0.0000 1751.0380 -7590.1982 295.7913 -9341.2362 -7585.6388 299.8787 -778.9269 -684.2322 31080.6031 2.7594 2.7325
TCL: Exiting due to exit command.
