Info: SIMULATION PARAMETERS:
Info: TIMESTEP               2
Info: NUMBER OF STEPS        0
Info: STEPS PER CYCLE        10
Info: PERIODIC CELL BASIS 1  37.38 0 0
Info: PERIODIC CELL BASIS 2  0 35.779 0
Info: PERIODIC CELL BASIS 3  0 0 33.27
Info: PERIODIC CELL CENTER   0 0 0
Info: WRAPPING WATERS AROUND PERIODIC BOUNDARIES ON OUTPUT.
Info: WRAPPING ALL CLUSTERS AROUND PERIODIC BOUNDARIES ON OUTPUT.
Info: FIRST LDB TIMESTEP     50
Info: LAST LDB TIMESTEP     -1
Info: HOM BACKGROUND SCALING 1
Info: PME BACKGROUND SCALING 1
Info: MIN ATOMS PER PATCH    40
Info: EMPTY PATCH LOAD       40 ATOMS
Info: INITIAL TEMPERATURE    300
Info: CENTER OF MASS MOVING INITIALLY? NO
Info: DIELECTRIC             1
Info: EXCLUDE                SCALED ONE-FOUR
Info: 1-4 ELECTROSTATICS SCALED BY 0.833333
Info: MODIFIED 1-4 VDW PARAMETERS WILL BE USED
Info: DCD FILENAME           mobley_1873346_equil.dcd
Info: DCD FREQUENCY          100000
Info: DCD FIRST STEP         100000
Info: DCD FILE WILL CONTAIN UNIT CELL DATA
Info: XST FILENAME           mobley_1873346_equil.xst
Info: XST FREQUENCY          100000
Info: NO VELOCITY DCD OUTPUT
Info: NO FORCE DCD OUTPUT
Info: OUTPUT FILENAME        mobley_1873346_equil
Info: BINARY OUTPUT FILES WILL BE USED
Info: RESTART FILENAME       mobley_1873346_equil.restart
Info: RESTART FREQUENCY      100000
Info: BINARY RESTART FILES WILL BE USED
Info: CUTOFF                 9
Info: PAIRLIST DISTANCE      11
Info: PAIRLIST SHRINK RATE   0.01
Info: PAIRLIST GROW RATE     0.01
Info: PAIRLIST TRIGGER       0.3
Info: PAIRLISTS PER CYCLE    2
Info: PAIRLISTS ENABLED
Info: MARGIN                 8
Info: HYDROGEN GROUP CUTOFF  2.5
Info: PATCH DIMENSION        21.5
Info: ENERGY OUTPUT STEPS    100000
Info: ENERGY EVALUATION STEPS    100000
Info: OUTPUT ENERGY PRECISION 4
Info: CROSSTERM ENERGY INCLUDED IN DIHEDRAL
Info: TIMING OUTPUT STEPS    1000000
Info: PRESSURE OUTPUT STEPS  100000
Info: FIXED ATOMS ACTIVE
Info: LANGEVIN DYNAMICS ACTIVE
Info: LANGEVIN TEMPERATURE   30
Info: LANGEVIN USING BBK INTEGRATOR
Info: LANGEVIN DAMPING COEFFICIENT IS 1 INVERSE PS
Info: LANGEVIN DYNAMICS APPLIED TO HYDROGENS
Info: LANGEVIN PISTON PRESSURE CONTROL ACTIVE
Info:        TARGET PRESSURE IS 1.01325 BAR
Info:     OSCILLATION PERIOD IS 50 FS
Info:             DECAY TIME IS 25 FS
Info:     PISTON TEMPERATURE IS 300 K
Info:       PRESSURE CONTROL IS GROUP-BASED
Info:    INITIAL STRAIN RATE IS 0 0 0
Info:       CELL FLUCTUATION IS ISOTROPIC
Info: PARTICLE MESH EWALD (PME) ACTIVE
Info: PME TOLERANCE               1e-06
Info: PME EWALD COEFFICIENT       0.348832
Info: PME INTERPOLATION ORDER     4
Info: PME GRID DIMENSIONS         40 36 36
Info: PME MAXIMUM GRID SPACING    1
Info: FULL ELECTROSTATIC EVALUATION FREQUENCY      2
Info: USING VERLET I (r-RESPA) MTS SCHEME.
Info: C1 SPLITTING OF LONG RANGE ELECTROSTATICS
Info: PLACING ATOMS IN PATCHES BY HYDROGEN GROUPS
Info: RIGID BONDS TO HYDROGEN : ALL
Info:         ERROR TOLERANCE : 1e-08
Info:          MAX ITERATIONS : 100
Info: RIGID WATER USING SETTLE ALGORITHM
Info: RANDOM NUMBER SEED     1743740593
Info: USE HYDROGEN BONDS?    NO
Info: Using AMBER format force field!
Info: AMBER PARM FILE        mobley_1873346.prmtop
Info: COORDINATE PDB         mobley_1873346.pdb
Info: Exclusions will be read from PARM file!
Info: SCNB (VDW SCALING)     2
Info: USING ARITHMETIC MEAN TO COMBINE L-J SIGMA PARAMETERS
Info: BINARY COORDINATES     mobley_1873346_min.coor
Info: SUMMARY OF PARAMETERS:
Info: 6 BONDS
Info: 5 ANGLES
Info:   5 HARMONIC
Info:   0 COSINE-BASED
Info: 3 DIHEDRAL
Info: 0 IMPROPER
Info: 0 CROSSTERM
Info: 0 VDW
Info: 21 VDW_PAIRS
Info: 0 NBTHOLE_PAIRS
Info: STRUCTURE SUMMARY:
Info: 2970 ATOMS
Info: 2970 BONDS
Info: 24 ANGLES
Info: 36 DIHEDRALS
Info: 0 IMPROPERS
Info: 0 CROSSTERMS
Info: 3021 EXCLUSIONS
Info: 15 FIXED ATOMS
Info: 2963 RIGID BONDS
Info: 8 RIGID BONDS BETWEEN FIXED ATOMS
Info: 5910 DEGREES OF FREEDOM
Info: 992 HYDROGEN GROUPS
Info: 4 ATOMS IN LARGEST HYDROGEN GROUP
Info: 992 MIGRATION GROUPS
Info: 4 ATOMS IN LARGEST MIGRATION GROUP
Info: 7 HYDROGEN GROUPS WITH ALL ATOMS FIXED
Info: TOTAL MASS = 17837.9 amu
Info: TOTAL CHARGE = 6.33299e-08 e
Info: MASS DENSITY = 0.665706 g/cm^3
Info: ATOM DENSITY = 0.0667477 atoms/A^3
Info: ADDED 0 IMPLICIT EXCLUSIONS
Info: NONBONDED TABLE R-SQUARED SPACING: 0.0625
Info: NONBONDED TABLE SIZE: 705 POINTS
Info: REMOVING COM VELOCITY 0.120441 -0.0637296 0.169819
TCL: Running for 100000 steps
ETITLE: TS BOND ANGLE DIHED IMPRP ELECT VDW BOUNDARY MISC KINETIC TOTAL TEMP POTENTIAL TOTAL3 TEMPAVG PRESSURE GPRESSURE VOLUME PRESSAVG GPRESSAVG
ENERGY: 0 0.0000 0.0000 0.0000 0.0000 -13709.8328 2387.1970 0.0000 0.0000 1712.5943 -9610.0416 291.6469 -11322.6358 -9609.7080 291.6469 315.8238 347.9777 44495.9308 315.8238 347.9777
ENERGY: 100000 0.0000 0.0000 0.0000 0.0000 -14230.3150 2459.3768 0.0000 0.0000 172.5473 -11598.3908 29.3840 -11770.9381 -11598.0896 30.8395 -122.7628 -80.7346 29837.4178 5.5279 5.5221
TCL: Running 100000 steps at 60 kelvin.
TCL: Setting parameter langevinTemp to 60
TCL: Running for 100000 steps
ETITLE: TS BOND ANGLE DIHED IMPRP ELECT VDW BOUNDARY MISC KINETIC TOTAL TEMP POTENTIAL TOTAL3 TEMPAVG PRESSURE GPRESSURE VOLUME PRESSAVG GPRESSAVG
ENERGY: 100000 0.0000 0.0000 0.0000 0.0000 -14230.3150 2459.3768 0.0000 0.0000 172.4573 -11598.4809 29.3687 -11770.9381 -11598.0454 29.3687 -124.3794 -80.8934 29837.4178 -124.3794 -80.8934
ENERGY: 200000 0.0000 0.0000 0.0000 0.0000 -14242.8242 2483.6649 0.0000 0.0000 348.4495 -11410.7099 59.3393 -11759.1593 -11409.8493 60.0725 382.0458 397.0648 28997.0098 2.8710 2.8275
TCL: Running 100000 steps at 90 kelvin.
TCL: Setting parameter langevinTemp to 90
TCL: Running for 100000 steps
ETITLE: TS BOND ANGLE DIHED IMPRP ELECT VDW BOUNDARY MISC KINETIC TOTAL TEMP POTENTIAL TOTAL3 TEMPAVG PRESSURE GPRESSURE VOLUME PRESSAVG GPRESSAVG
ENERGY: 200000 0.0000 0.0000 0.0000 0.0000 -14242.8242 2483.6649 0.0000 0.0000 348.2722 -11410.8871 59.3092 -11759.1593 -11410.3583 59.3092 349.3219 397.5130 28997.0098 349.3219 397.5130
ENERGY: 300000 0.0000 0.0000 0.0000 0.0000 -14019.0874 2319.2193 0.0000 0.0000 541.7696 -11158.0985 92.2609 -11699.8681 -11156.6156 89.9961 -748.5339 -675.5311 28801.1595 3.5966 3.5228
TCL: Running 100000 steps at 120 kelvin.
TCL: Setting parameter langevinTemp to 120
TCL: Running for 100000 steps
ETITLE: TS BOND ANGLE DIHED IMPRP ELECT VDW BOUNDARY MISC KINETIC TOTAL TEMP POTENTIAL TOTAL3 TEMPAVG PRESSURE GPRESSURE VOLUME PRESSAVG GPRESSAVG
ENERGY: 300000 0.0000 0.0000 0.0000 0.0000 -14019.0874 2319.2193 0.0000 0.0000 541.5088 -11158.3593 92.2165 -11699.8681 -11157.2506 92.2165 -735.7453 -676.0670 28801.1595 -735.7453 -676.0670
ENERGY: 400000 0.0000 0.0000 0.0000 0.0000 -13869.1804 2335.3700 0.0000 0.0000 714.0275 -10819.7829 121.5956 -11533.8104 -10818.1819 120.2443 -73.8775 -39.9549 28800.7370 4.1070 4.2412
TCL: Running 100000 steps at 150 kelvin.
TCL: Setting parameter langevinTemp to 150
TCL: Running for 100000 steps
ETITLE: TS BOND ANGLE DIHED IMPRP ELECT VDW BOUNDARY MISC KINETIC TOTAL TEMP POTENTIAL TOTAL3 TEMPAVG PRESSURE GPRESSURE VOLUME PRESSAVG GPRESSAVG
ENERGY: 400000 0.0000 0.0000 0.0000 0.0000 -13869.1804 2335.3700 0.0000 0.0000 713.6829 -10820.1275 121.5369 -11533.8104 -10818.5305 121.5369 -87.4087 -40.8808 28800.7370 -87.4087 -40.8808
ENERGY: 500000 0.0000 0.0000 0.0000 0.0000 -13744.4220 2338.6593 0.0000 0.0000 889.6599 -10516.1028 151.5050 -11405.7627 -10513.6981 149.8591 376.7907 410.5810 29127.1661 5.2833 5.2081
TCL: Running 100000 steps at 180 kelvin.
TCL: Setting parameter langevinTemp to 180
TCL: Running for 100000 steps
ETITLE: TS BOND ANGLE DIHED IMPRP ELECT VDW BOUNDARY MISC KINETIC TOTAL TEMP POTENTIAL TOTAL3 TEMPAVG PRESSURE GPRESSURE VOLUME PRESSAVG GPRESSAVG
ENERGY: 500000 0.0000 0.0000 0.0000 0.0000 -13744.4220 2338.6593 0.0000 0.0000 889.2167 -10516.5460 151.4295 -11405.7627 -10514.3761 151.4295 372.6083 410.1558 29127.1661 372.6083 410.1558
ENERGY: 600000 0.0000 0.0000 0.0000 0.0000 -13069.4057 2016.9321 0.0000 0.0000 1053.4253 -9999.0483 179.3935 -11052.4735 -9996.1615 180.0449 -738.8649 -630.4735 28774.2888 3.3227 3.3232
TCL: Running 100000 steps at 210 kelvin.
TCL: Setting parameter langevinTemp to 210
TCL: Running for 100000 steps
ETITLE: TS BOND ANGLE DIHED IMPRP ELECT VDW BOUNDARY MISC KINETIC TOTAL TEMP POTENTIAL TOTAL3 TEMPAVG PRESSURE GPRESSURE VOLUME PRESSAVG GPRESSAVG
ENERGY: 600000 0.0000 0.0000 0.0000 0.0000 -13069.4057 2016.9321 0.0000 0.0000 1052.8934 -9999.5801 179.3029 -11052.4735 -9997.6962 179.3029 -686.7471 -629.6974 28774.2888 -686.7471 -629.6974
ENERGY: 700000 0.0000 0.0000 0.0000 0.0000 -12375.8872 1857.3338 0.0000 0.0000 1208.0498 -9310.5035 205.7253 -10518.5534 -9307.5741 210.0246 -393.3853 -278.5279 29267.8157 3.2588 3.1728
TCL: Running 100000 steps at 240 kelvin.
TCL: Setting parameter langevinTemp to 240
TCL: Running for 100000 steps
ETITLE: TS BOND ANGLE DIHED IMPRP ELECT VDW BOUNDARY MISC KINETIC TOTAL TEMP POTENTIAL TOTAL3 TEMPAVG PRESSURE GPRESSURE VOLUME PRESSAVG GPRESSAVG
ENERGY: 700000 0.0000 0.0000 0.0000 0.0000 -12375.8872 1857.3338 0.0000 0.0000 1207.4223 -9311.1311 205.6185 -10518.5534 -9309.1718 205.6185 -346.5609 -277.2727 29267.8157 -346.5609 -277.2727
ENERGY: 800000 0.0000 0.0000 0.0000 0.0000 -11934.8669 1764.7489 0.0000 0.0000 1461.5410 -8708.5770 248.8937 -10170.1180 -8704.0459 239.5619 181.2255 267.2123 29487.1312 3.6475 3.5050
TCL: Running 100000 steps at 270 kelvin.
TCL: Setting parameter langevinTemp to 270
TCL: Running for 100000 steps
ETITLE: TS BOND ANGLE DIHED IMPRP ELECT VDW BOUNDARY MISC KINETIC TOTAL TEMP POTENTIAL TOTAL3 TEMPAVG PRESSURE GPRESSURE VOLUME PRESSAVG GPRESSAVG
ENERGY: 800000 0.0000 0.0000 0.0000 0.0000 -11934.8669 1764.7489 0.0000 0.0000 1460.8459 -8709.2721 248.7753 -10170.1180 -8707.7991 248.7753 190.3120 268.7975 29487.1312 190.3120 268.7975
ENERGY: 900000 0.0000 0.0000 0.0000 0.0000 -11294.2389 1554.8947 0.0000 0.0000 1586.5706 -8152.7736 270.1857 -9739.3441 -8150.5640 269.9931 -171.1985 -81.2397 29741.8692 4.9907 4.8691
TCL: Running 1000000 steps at 300 kelvin.
TCL: Setting parameter langevinTemp to 300
TCL: Running for 1000000 steps
ETITLE: TS BOND ANGLE DIHED IMPRP ELECT VDW BOUNDARY MISC KINETIC TOTAL TEMP POTENTIAL TOTAL3 TEMPAVG PRESSURE GPRESSURE VOLUME PRESSAVG GPRESSAVG
ENERGY: 900000 0.0000 0.0000 0.0000 0.0000 -11294.2389 1554.8947 0.0000 0.0000 1585.8055 -8153.5386 270.0554 -9739.3441 -8151.5212 270.0554 -172.2820 -81.3817 29741.8692 -172.2820 -81.3817
ENERGY: 1100000 0.0000 0.0000 0.0000 0.0000 -10770.6229 1467.6440 0.0000 0.0000 1768.2349 -7534.7440 301.1223 -9302.9789 -7530.7500 299.4640 327.9342 408.9576 30492.0213 3.5611 3.5225
ENERGY: 1300000 0.0000 0.0000 0.0000 0.0000 -10674.2939 1418.4710 0.0000 0.0000 1819.9654 -7435.8574 309.9317 -9255.8229 -7434.7737 300.8346 34.7411 124.2792 30777.1742 3.2553 3.3085
ENERGY: 1500000 0.0000 0.0000 0.0000 0.0000 -10623.6316 1320.5037 0.0000 0.0000 1806.7225 -7496.4055 307.6765 -9303.1279 -7494.4950 300.2403 -996.3453 -906.9107 30881.8343 3.3992 3.2532
ENERGY: 1700000 0.0000 0.0000 0.0000 0.0000 -10777.9409 1456.5608 0.0000 0.0000 1783.1271 -7538.2530 303.6583 -9321.3801 -7534.4495 300.2006 251.4049 367.5255 30282.0633 2.6281 2.4844
ENERGY: 1900000 0.0000 0.0000 0.0000 0.0000 -10700.4110 1388.7578 0.0000 0.0000 1700.9919 -7610.6613 289.6711 -9311.6532 -7607.8726 299.7610 -680.8202 -615.0539 31080.4940 2.0704 2.1236
TCL: Exiting due to exit command.
