Info: SIMULATION PARAMETERS:
Info: TIMESTEP               2
Info: NUMBER OF STEPS        0
Info: STEPS PER CYCLE        10
Info: PERIODIC CELL BASIS 1  37.435 0 0
Info: PERIODIC CELL BASIS 2  0 35.411 0
Info: PERIODIC CELL BASIS 3  0 0 33.27
Info: PERIODIC CELL CENTER   0 0 0
Info: WRAPPING WATERS AROUND PERIODIC BOUNDARIES ON OUTPUT.
Info: WRAPPING ALL CLUSTERS AROUND PERIODIC BOUNDARIES ON OUTPUT.
Info: FIRST LDB TIMESTEP     50
Info: LAST LDB TIMESTEP     -1
Info: HOM BACKGROUND SCALING 1
Info: PME BACKGROUND SCALING 1
Info: MIN ATOMS PER PATCH    40
Info: EMPTY PATCH LOAD       40 ATOMS
Info: INITIAL TEMPERATURE    300
Info: CENTER OF MASS MOVING INITIALLY? NO
Info: DIELECTRIC             1
Info: EXCLUDE                SCALED ONE-FOUR
Info: 1-4 ELECTROSTATICS SCALED BY 0.833333
Info: MODIFIED 1-4 VDW PARAMETERS WILL BE USED
Info: DCD FILENAME           mobley_2484519_equil.dcd
Info: DCD FREQUENCY          100000
Info: DCD FIRST STEP         100000
Info: DCD FILE WILL CONTAIN UNIT CELL DATA
Info: XST FILENAME           mobley_2484519_equil.xst
Info: XST FREQUENCY          100000
Info: NO VELOCITY DCD OUTPUT
Info: NO FORCE DCD OUTPUT
Info: OUTPUT FILENAME        mobley_2484519_equil
Info: BINARY OUTPUT FILES WILL BE USED
Info: RESTART FILENAME       mobley_2484519_equil.restart
Info: RESTART FREQUENCY      100000
Info: BINARY RESTART FILES WILL BE USED
Info: CUTOFF                 9
Info: PAIRLIST DISTANCE      11
Info: PAIRLIST SHRINK RATE   0.01
Info: PAIRLIST GROW RATE     0.01
Info: PAIRLIST TRIGGER       0.3
Info: PAIRLISTS PER CYCLE    2
Info: PAIRLISTS ENABLED
Info: MARGIN                 8
Info: HYDROGEN GROUP CUTOFF  2.5
Info: PATCH DIMENSION        21.5
Info: ENERGY OUTPUT STEPS    100000
Info: ENERGY EVALUATION STEPS    100000
Info: OUTPUT ENERGY PRECISION 4
Info: CROSSTERM ENERGY INCLUDED IN DIHEDRAL
Info: TIMING OUTPUT STEPS    1000000
Info: PRESSURE OUTPUT STEPS  100000
Info: FIXED ATOMS ACTIVE
Info: LANGEVIN DYNAMICS ACTIVE
Info: LANGEVIN TEMPERATURE   30
Info: LANGEVIN USING BBK INTEGRATOR
Info: LANGEVIN DAMPING COEFFICIENT IS 1 INVERSE PS
Info: LANGEVIN DYNAMICS APPLIED TO HYDROGENS
Info: LANGEVIN PISTON PRESSURE CONTROL ACTIVE
Info:        TARGET PRESSURE IS 1.01325 BAR
Info:     OSCILLATION PERIOD IS 50 FS
Info:             DECAY TIME IS 25 FS
Info:     PISTON TEMPERATURE IS 300 K
Info:       PRESSURE CONTROL IS GROUP-BASED
Info:    INITIAL STRAIN RATE IS 0 0 0
Info:       CELL FLUCTUATION IS ISOTROPIC
Info: PARTICLE MESH EWALD (PME) ACTIVE
Info: PME TOLERANCE               1e-06
Info: PME EWALD COEFFICIENT       0.348832
Info: PME INTERPOLATION ORDER     4
Info: PME GRID DIMENSIONS         40 36 36
Info: PME MAXIMUM GRID SPACING    1
Info: FULL ELECTROSTATIC EVALUATION FREQUENCY      2
Info: USING VERLET I (r-RESPA) MTS SCHEME.
Info: C1 SPLITTING OF LONG RANGE ELECTROSTATICS
Info: PLACING ATOMS IN PATCHES BY HYDROGEN GROUPS
Info: RIGID BONDS TO HYDROGEN : ALL
Info:         ERROR TOLERANCE : 1e-08
Info:          MAX ITERATIONS : 100
Info: RIGID WATER USING SETTLE ALGORITHM
Info: RANDOM NUMBER SEED     1744090304
Info: USE HYDROGEN BONDS?    NO
Info: Using AMBER format force field!
Info: AMBER PARM FILE        mobley_2484519.prmtop
Info: COORDINATE PDB         mobley_2484519.pdb
Info: Exclusions will be read from PARM file!
Info: SCNB (VDW SCALING)     2
Info: USING ARITHMETIC MEAN TO COMBINE L-J SIGMA PARAMETERS
Info: BINARY COORDINATES     mobley_2484519_min.coor
Info: SUMMARY OF PARAMETERS:
Info: 7 BONDS
Info: 7 ANGLES
Info:   7 HARMONIC
Info:   0 COSINE-BASED
Info: 3 DIHEDRAL
Info: 0 IMPROPER
Info: 0 CROSSTERM
Info: 0 VDW
Info: 28 VDW_PAIRS
Info: 0 NBTHOLE_PAIRS
Info: STRUCTURE SUMMARY:
Info: 2982 ATOMS
Info: 2982 BONDS
Info: 24 ANGLES
Info: 36 DIHEDRALS
Info: 0 IMPROPERS
Info: 0 CROSSTERMS
Info: 3033 EXCLUSIONS
Info: 15 FIXED ATOMS
Info: 2974 RIGID BONDS
Info: 7 RIGID BONDS BETWEEN FIXED ATOMS
Info: 5934 DEGREES OF FREEDOM
Info: 997 HYDROGEN GROUPS
Info: 3 ATOMS IN LARGEST HYDROGEN GROUP
Info: 997 MIGRATION GROUPS
Info: 3 ATOMS IN LARGEST MIGRATION GROUP
Info: 8 HYDROGEN GROUPS WITH ALL ATOMS FIXED
Info: TOTAL MASS = 17944.4 amu
Info: TOTAL CHARGE = -9.99719e-05 e
Info: MASS DENSITY = 0.675646 g/cm^3
Info: ATOM DENSITY = 0.0676143 atoms/A^3
Info: ADDED 0 IMPLICIT EXCLUSIONS
Info: NONBONDED TABLE R-SQUARED SPACING: 0.0625
Info: NONBONDED TABLE SIZE: 705 POINTS
Info: REMOVING COM VELOCITY -0.010514 0.0688516 -0.236433
TCL: Running for 100000 steps
ETITLE: TS BOND ANGLE DIHED IMPRP ELECT VDW BOUNDARY MISC KINETIC TOTAL TEMP POTENTIAL TOTAL3 TEMPAVG PRESSURE GPRESSURE VOLUME PRESSAVG GPRESSAVG
ENERGY: 0 0.0000 0.0000 0.0000 0.0000 -13801.3883 2398.6084 0.0000 0.0000 1794.1406 -9608.6394 304.2981 -11402.7799 -9608.2441 304.2981 221.1514 256.6993 44103.0708 221.1514 256.6993
ENERGY: 100000 0.0000 0.0000 0.0000 0.0000 -14315.8087 2457.0727 0.0000 0.0000 177.6138 -11681.1222 30.1245 -11858.7360 -11680.7727 30.8367 -358.0301 -308.4753 29596.0030 3.8099 3.7965
TCL: Running 100000 steps at 60 kelvin.
TCL: Setting parameter langevinTemp to 60
TCL: Running for 100000 steps
ETITLE: TS BOND ANGLE DIHED IMPRP ELECT VDW BOUNDARY MISC KINETIC TOTAL TEMP POTENTIAL TOTAL3 TEMPAVG PRESSURE GPRESSURE VOLUME PRESSAVG GPRESSAVG
ENERGY: 100000 0.0000 0.0000 0.0000 0.0000 -14315.8087 2457.0727 0.0000 0.0000 177.5265 -11681.2095 30.1097 -11858.7360 -11680.7955 30.1097 -372.9976 -308.5369 29596.0030 -372.9976 -308.5369
ENERGY: 200000 0.0000 0.0000 0.0000 0.0000 -14229.3401 2452.3693 0.0000 0.0000 351.7370 -11425.2339 59.6569 -11776.9708 -11424.0265 60.0316 -129.9131 -100.5734 29764.5642 3.9196 3.9320
TCL: Running 100000 steps at 90 kelvin.
TCL: Setting parameter langevinTemp to 90
TCL: Running for 100000 steps
ETITLE: TS BOND ANGLE DIHED IMPRP ELECT VDW BOUNDARY MISC KINETIC TOTAL TEMP POTENTIAL TOTAL3 TEMPAVG PRESSURE GPRESSURE VOLUME PRESSAVG GPRESSAVG
ENERGY: 200000 0.0000 0.0000 0.0000 0.0000 -14229.3401 2452.3693 0.0000 0.0000 351.5609 -11425.4099 59.6271 -11776.9708 -11424.6269 59.6271 -145.2017 -100.5580 29764.5642 -145.2017 -100.5580
ENERGY: 300000 0.0000 0.0000 0.0000 0.0000 -13986.8883 2325.7993 0.0000 0.0000 525.6905 -11135.3985 89.1606 -11661.0890 -11133.8503 89.9366 -553.7375 -492.4484 29339.0258 4.0367 3.9715
TCL: Running 100000 steps at 120 kelvin.
TCL: Setting parameter langevinTemp to 120
TCL: Running for 100000 steps
ETITLE: TS BOND ANGLE DIHED IMPRP ELECT VDW BOUNDARY MISC KINETIC TOTAL TEMP POTENTIAL TOTAL3 TEMPAVG PRESSURE GPRESSURE VOLUME PRESSAVG GPRESSAVG
ENERGY: 300000 0.0000 0.0000 0.0000 0.0000 -13986.8883 2325.7993 0.0000 0.0000 525.4232 -11135.6658 89.1153 -11661.0890 -11134.5505 89.1153 -545.8357 -492.6363 29339.0258 -545.8357 -492.6363
ENERGY: 400000 0.0000 0.0000 0.0000 0.0000 -13933.4541 2369.3598 0.0000 0.0000 707.0243 -10857.0700 119.9160 -11564.0943 -10855.0026 120.0500 242.1051 289.9079 29107.7342 2.5266 2.3814
TCL: Running 100000 steps at 150 kelvin.
TCL: Setting parameter langevinTemp to 150
TCL: Running for 100000 steps
ETITLE: TS BOND ANGLE DIHED IMPRP ELECT VDW BOUNDARY MISC KINETIC TOTAL TEMP POTENTIAL TOTAL3 TEMPAVG PRESSURE GPRESSURE VOLUME PRESSAVG GPRESSAVG
ENERGY: 400000 0.0000 0.0000 0.0000 0.0000 -13933.4541 2369.3598 0.0000 0.0000 706.6688 -10857.4255 119.8557 -11564.0943 -10856.1826 119.8557 242.9116 289.7213 29107.7342 242.9116 289.7213
ENERGY: 500000 0.0000 0.0000 0.0000 0.0000 -13586.7347 2205.5672 0.0000 0.0000 862.6916 -10518.4759 146.3182 -11381.1675 -10516.3935 149.8919 -487.4563 -456.9681 29426.5402 3.4230 3.4942
TCL: Running 100000 steps at 180 kelvin.
TCL: Setting parameter langevinTemp to 180
TCL: Running for 100000 steps
ETITLE: TS BOND ANGLE DIHED IMPRP ELECT VDW BOUNDARY MISC KINETIC TOTAL TEMP POTENTIAL TOTAL3 TEMPAVG PRESSURE GPRESSURE VOLUME PRESSAVG GPRESSAVG
ENERGY: 500000 0.0000 0.0000 0.0000 0.0000 -13586.7347 2205.5672 0.0000 0.0000 862.2491 -10518.9184 146.2432 -11381.1675 -10517.5213 146.2432 -513.0194 -456.1775 29426.5402 -513.0194 -456.1775
ENERGY: 600000 0.0000 0.0000 0.0000 0.0000 -13173.2081 2057.3538 0.0000 0.0000 1050.7679 -10065.0863 178.2172 -11115.8543 -10062.7024 179.9300 -815.5399 -762.8190 29567.6628 2.2601 2.1565
TCL: Running 100000 steps at 210 kelvin.
TCL: Setting parameter langevinTemp to 210
TCL: Running for 100000 steps
ETITLE: TS BOND ANGLE DIHED IMPRP ELECT VDW BOUNDARY MISC KINETIC TOTAL TEMP POTENTIAL TOTAL3 TEMPAVG PRESSURE GPRESSURE VOLUME PRESSAVG GPRESSAVG
ENERGY: 600000 0.0000 0.0000 0.0000 0.0000 -13173.2081 2057.3538 0.0000 0.0000 1050.2336 -10065.6207 178.1266 -11115.8543 -10063.4440 178.1266 -820.0416 -762.6180 29567.6628 -820.0416 -762.6180
ENERGY: 700000 0.0000 0.0000 0.0000 0.0000 -12530.3842 1927.6801 0.0000 0.0000 1285.7898 -9316.9143 218.0785 -10602.7041 -9315.7940 209.8567 260.3793 291.6956 29210.4655 2.3073 2.2106
TCL: Running 100000 steps at 240 kelvin.
TCL: Setting parameter langevinTemp to 240
TCL: Running for 100000 steps
ETITLE: TS BOND ANGLE DIHED IMPRP ELECT VDW BOUNDARY MISC KINETIC TOTAL TEMP POTENTIAL TOTAL3 TEMPAVG PRESSURE GPRESSURE VOLUME PRESSAVG GPRESSAVG
ENERGY: 700000 0.0000 0.0000 0.0000 0.0000 -12530.3842 1927.6801 0.0000 0.0000 1285.1962 -9317.5080 217.9778 -10602.7041 -9314.8729 217.9778 207.5709 289.5503 29210.4655 207.5709 289.5503
ENERGY: 800000 0.0000 0.0000 0.0000 0.0000 -12068.6403 1803.7678 0.0000 0.0000 1378.4387 -8886.4338 233.7923 -10264.8725 -8882.7707 239.3665 302.5493 352.1640 29342.7578 2.8879 3.0289
TCL: Running 100000 steps at 270 kelvin.
TCL: Setting parameter langevinTemp to 270
TCL: Running for 100000 steps
ETITLE: TS BOND ANGLE DIHED IMPRP ELECT VDW BOUNDARY MISC KINETIC TOTAL TEMP POTENTIAL TOTAL3 TEMPAVG PRESSURE GPRESSURE VOLUME PRESSAVG GPRESSAVG
ENERGY: 800000 0.0000 0.0000 0.0000 0.0000 -12068.6403 1803.7678 0.0000 0.0000 1377.7059 -8887.1665 233.6681 -10264.8725 -8885.2471 233.6681 278.2867 353.7163 29342.7578 278.2867 353.7163
ENERGY: 900000 0.0000 0.0000 0.0000 0.0000 -11426.4527 1621.9584 0.0000 0.0000 1613.7703 -8190.7239 273.7062 -9804.4943 -8188.0217 269.9285 358.3015 396.4875 29765.7890 4.2391 4.3589
TCL: Running 1000000 steps at 300 kelvin.
TCL: Setting parameter langevinTemp to 300
TCL: Running for 1000000 steps
ETITLE: TS BOND ANGLE DIHED IMPRP ELECT VDW BOUNDARY MISC KINETIC TOTAL TEMP POTENTIAL TOTAL3 TEMPAVG PRESSURE GPRESSURE VOLUME PRESSAVG GPRESSAVG
ENERGY: 900000 0.0000 0.0000 0.0000 0.0000 -11426.4527 1621.9584 0.0000 0.0000 1612.9683 -8191.5259 273.5701 -9804.4943 -8188.5346 273.5701 311.3619 396.4094 29765.7890 311.3619 396.4094
ENERGY: 1100000 0.0000 0.0000 0.0000 0.0000 -10689.3917 1308.6484 0.0000 0.0000 1756.3679 -7624.3754 297.8916 -9380.7433 -7619.1753 300.1229 -1605.7970 -1498.1808 31622.7635 2.9358 3.0849
ENERGY: 1300000 0.0000 0.0000 0.0000 0.0000 -10835.3084 1479.7006 0.0000 0.0000 1716.5483 -7639.0595 291.1380 -9355.6078 -7637.3250 300.3809 125.0050 227.4660 30722.0108 3.2530 3.1513
ENERGY: 1500000 0.0000 0.0000 0.0000 0.0000 -10939.0989 1543.9143 0.0000 0.0000 1744.3296 -7650.8550 295.8499 -9395.1845 -7647.0761 299.8980 659.1523 730.8350 30614.4626 2.9670 2.9295
ENERGY: 1700000 0.0000 0.0000 0.0000 0.0000 -10731.5697 1367.5554 0.0000 0.0000 1777.5802 -7586.4342 301.4894 -9364.0144 -7580.5703 299.9576 -705.6973 -618.1679 31039.1178 2.2626 2.1813
ENERGY: 1900000 0.0000 0.0000 0.0000 0.0000 -10809.8573 1446.8876 0.0000 0.0000 1764.8040 -7598.1657 299.3225 -9362.9697 -7594.5105 300.2696 84.1865 145.0331 30723.8351 3.1223 2.9935
TCL: Exiting due to exit command.
