Info: SIMULATION PARAMETERS:
Info: TIMESTEP               2
Info: NUMBER OF STEPS        0
Info: STEPS PER CYCLE        10
Info: PERIODIC CELL BASIS 1  40.176 0 0
Info: PERIODIC CELL BASIS 2  0 36.451 0
Info: PERIODIC CELL BASIS 3  0 0 30.222
Info: PERIODIC CELL CENTER   0 0 0
Info: WRAPPING WATERS AROUND PERIODIC BOUNDARIES ON OUTPUT.
Info: WRAPPING ALL CLUSTERS AROUND PERIODIC BOUNDARIES ON OUTPUT.
Info: FIRST LDB TIMESTEP     50
Info: LAST LDB TIMESTEP     -1
Info: HOM BACKGROUND SCALING 1
Info: PME BACKGROUND SCALING 1
Info: MIN ATOMS PER PATCH    40
Info: EMPTY PATCH LOAD       40 ATOMS
Info: INITIAL TEMPERATURE    300
Info: CENTER OF MASS MOVING INITIALLY? NO
Info: DIELECTRIC             1
Info: EXCLUDE                SCALED ONE-FOUR
Info: 1-4 ELECTROSTATICS SCALED BY 0.833333
Info: MODIFIED 1-4 VDW PARAMETERS WILL BE USED
Info: DCD FILENAME           mobley_2960202_equil.dcd
Info: DCD FREQUENCY          100000
Info: DCD FIRST STEP         100000
Info: DCD FILE WILL CONTAIN UNIT CELL DATA
Info: XST FILENAME           mobley_2960202_equil.xst
Info: XST FREQUENCY          100000
Info: NO VELOCITY DCD OUTPUT
Info: NO FORCE DCD OUTPUT
Info: OUTPUT FILENAME        mobley_2960202_equil
Info: BINARY OUTPUT FILES WILL BE USED
Info: RESTART FILENAME       mobley_2960202_equil.restart
Info: RESTART FREQUENCY      100000
Info: BINARY RESTART FILES WILL BE USED
Info: CUTOFF                 9
Info: PAIRLIST DISTANCE      11
Info: PAIRLIST SHRINK RATE   0.01
Info: PAIRLIST GROW RATE     0.01
Info: PAIRLIST TRIGGER       0.3
Info: PAIRLISTS PER CYCLE    2
Info: PAIRLISTS ENABLED
Info: MARGIN                 8
Info: HYDROGEN GROUP CUTOFF  2.5
Info: PATCH DIMENSION        21.5
Info: ENERGY OUTPUT STEPS    100000
Info: ENERGY EVALUATION STEPS    100000
Info: OUTPUT ENERGY PRECISION 4
Info: CROSSTERM ENERGY INCLUDED IN DIHEDRAL
Info: TIMING OUTPUT STEPS    1000000
Info: PRESSURE OUTPUT STEPS  100000
Info: FIXED ATOMS ACTIVE
Info: LANGEVIN DYNAMICS ACTIVE
Info: LANGEVIN TEMPERATURE   30
Info: LANGEVIN USING BBK INTEGRATOR
Info: LANGEVIN DAMPING COEFFICIENT IS 1 INVERSE PS
Info: LANGEVIN DYNAMICS APPLIED TO HYDROGENS
Info: LANGEVIN PISTON PRESSURE CONTROL ACTIVE
Info:        TARGET PRESSURE IS 1.01325 BAR
Info:     OSCILLATION PERIOD IS 50 FS
Info:             DECAY TIME IS 25 FS
Info:     PISTON TEMPERATURE IS 300 K
Info:       PRESSURE CONTROL IS GROUP-BASED
Info:    INITIAL STRAIN RATE IS 0 0 0
Info:       CELL FLUCTUATION IS ISOTROPIC
Info: PARTICLE MESH EWALD (PME) ACTIVE
Info: PME TOLERANCE               1e-06
Info: PME EWALD COEFFICIENT       0.348832
Info: PME INTERPOLATION ORDER     4
Info: PME GRID DIMENSIONS         44 40 32
Info: PME MAXIMUM GRID SPACING    1
Info: FULL ELECTROSTATIC EVALUATION FREQUENCY      2
Info: USING VERLET I (r-RESPA) MTS SCHEME.
Info: C1 SPLITTING OF LONG RANGE ELECTROSTATICS
Info: PLACING ATOMS IN PATCHES BY HYDROGEN GROUPS
Info: RIGID BONDS TO HYDROGEN : ALL
Info:         ERROR TOLERANCE : 1e-08
Info:          MAX ITERATIONS : 100
Info: RIGID WATER USING SETTLE ALGORITHM
Info: RANDOM NUMBER SEED     1743764317
Info: USE HYDROGEN BONDS?    NO
Info: Using AMBER format force field!
Info: AMBER PARM FILE        mobley_2960202.prmtop
Info: COORDINATE PDB         mobley_2960202.pdb
Info: Exclusions will be read from PARM file!
Info: SCNB (VDW SCALING)     2
Info: USING ARITHMETIC MEAN TO COMBINE L-J SIGMA PARAMETERS
Info: BINARY COORDINATES     mobley_2960202_min.coor
Info: SUMMARY OF PARAMETERS:
Info: 6 BONDS
Info: 5 ANGLES
Info:   5 HARMONIC
Info:   0 COSINE-BASED
Info: 3 DIHEDRAL
Info: 0 IMPROPER
Info: 0 CROSSTERM
Info: 0 VDW
Info: 21 VDW_PAIRS
Info: 0 NBTHOLE_PAIRS
Info: STRUCTURE SUMMARY:
Info: 2923 ATOMS
Info: 2925 BONDS
Info: 38 ANGLES
Info: 68 DIHEDRALS
Info: 0 IMPROPERS
Info: 0 CROSSTERMS
Info: 3010 EXCLUSIONS
Info: 22 FIXED ATOMS
Info: 2903 RIGID BONDS
Info: 2 RIGID BONDS BETWEEN FIXED ATOMS
Info: 5802 DEGREES OF FREEDOM
Info: 987 HYDROGEN GROUPS
Info: 3 ATOMS IN LARGEST HYDROGEN GROUP
Info: 987 MIGRATION GROUPS
Info: 3 ATOMS IN LARGEST MIGRATION GROUP
Info: 20 HYDROGEN GROUPS WITH ALL ATOMS FIXED
Info: TOTAL MASS = 17812.3 amu
Info: TOTAL CHARGE = 0.00050002 e
Info: MASS DENSITY = 0.668313 g/cm^3
Info: ATOM DENSITY = 0.0660434 atoms/A^3
Info: ADDED 0 IMPLICIT EXCLUSIONS
Info: NONBONDED TABLE R-SQUARED SPACING: 0.0625
Info: NONBONDED TABLE SIZE: 705 POINTS
Info: REMOVING COM VELOCITY 0.034294 -0.0203668 0.21661
TCL: Running for 100000 steps
ETITLE: TS BOND ANGLE DIHED IMPRP ELECT VDW BOUNDARY MISC KINETIC TOTAL TEMP POTENTIAL TOTAL3 TEMPAVG PRESSURE GPRESSURE VOLUME PRESSAVG GPRESSAVG
ENERGY: 0 0.0000 0.0000 0.0000 0.0000 -13494.6608 2354.7066 0.0000 0.0000 1699.1138 -9440.8404 294.7373 -11139.9542 -9440.5149 294.7373 376.2142 404.5840 44258.7704 376.2142 404.5840
ENERGY: 100000 0.0000 0.0000 0.0000 0.0000 -13932.3171 2367.3831 0.0000 0.0000 172.1151 -11392.8189 29.8560 -11564.9340 -11392.2047 30.8343 -482.9805 -413.3514 29658.1033 3.6449 3.6373
TCL: Running 100000 steps at 60 kelvin.
TCL: Setting parameter langevinTemp to 60
TCL: Running for 100000 steps
ETITLE: TS BOND ANGLE DIHED IMPRP ELECT VDW BOUNDARY MISC KINETIC TOTAL TEMP POTENTIAL TOTAL3 TEMPAVG PRESSURE GPRESSURE VOLUME PRESSAVG GPRESSAVG
ENERGY: 100000 0.0000 0.0000 0.0000 0.0000 -13932.3171 2367.3831 0.0000 0.0000 172.0320 -11392.9020 29.8416 -11564.9340 -11392.5337 29.8416 -473.9232 -413.1858 29658.1033 -473.9232 -413.1858
ENERGY: 200000 0.0000 0.0000 0.0000 0.0000 -13818.1015 2314.5225 0.0000 0.0000 357.2942 -11146.2847 61.9782 -11503.5789 -11145.4243 59.9368 -456.5358 -403.1230 29010.5593 5.3552 5.4051
TCL: Running 100000 steps at 90 kelvin.
TCL: Setting parameter langevinTemp to 90
TCL: Running for 100000 steps
ETITLE: TS BOND ANGLE DIHED IMPRP ELECT VDW BOUNDARY MISC KINETIC TOTAL TEMP POTENTIAL TOTAL3 TEMPAVG PRESSURE GPRESSURE VOLUME PRESSAVG GPRESSAVG
ENERGY: 200000 0.0000 0.0000 0.0000 0.0000 -13818.1015 2314.5225 0.0000 0.0000 357.1289 -11146.4501 61.9495 -11503.5789 -11145.6101 61.9495 -452.0966 -403.4804 29010.5593 -452.0966 -403.4804
ENERGY: 300000 0.0000 0.0000 0.0000 0.0000 -13802.4698 2372.7281 0.0000 0.0000 518.1720 -10911.5697 89.8849 -11429.7417 -10910.3661 89.9363 473.4606 516.6840 28341.3709 3.6810 3.7662
TCL: Running 100000 steps at 120 kelvin.
TCL: Setting parameter langevinTemp to 120
TCL: Running for 100000 steps
ETITLE: TS BOND ANGLE DIHED IMPRP ELECT VDW BOUNDARY MISC KINETIC TOTAL TEMP POTENTIAL TOTAL3 TEMPAVG PRESSURE GPRESSURE VOLUME PRESSAVG GPRESSAVG
ENERGY: 300000 0.0000 0.0000 0.0000 0.0000 -13802.4698 2372.7281 0.0000 0.0000 517.9089 -10911.8329 89.8392 -11429.7417 -10910.8258 89.8392 480.4942 515.8650 28341.3709 480.4942 515.8650
ENERGY: 400000 0.0000 0.0000 0.0000 0.0000 -13585.9244 2252.7251 0.0000 0.0000 700.4495 -10632.7498 121.5037 -11333.1993 -10631.4090 119.8292 -249.3538 -155.8105 28599.7983 4.4412 4.3458
TCL: Running 100000 steps at 150 kelvin.
TCL: Setting parameter langevinTemp to 150
TCL: Running for 100000 steps
ETITLE: TS BOND ANGLE DIHED IMPRP ELECT VDW BOUNDARY MISC KINETIC TOTAL TEMP POTENTIAL TOTAL3 TEMPAVG PRESSURE GPRESSURE VOLUME PRESSAVG GPRESSAVG
ENERGY: 400000 0.0000 0.0000 0.0000 0.0000 -13585.9244 2252.7251 0.0000 0.0000 700.0896 -10633.1097 121.4413 -11333.1993 -10631.4931 121.4413 -200.0647 -156.7993 28599.7983 -200.0647 -156.7993
ENERGY: 500000 0.0000 0.0000 0.0000 0.0000 -13432.9301 2277.0078 0.0000 0.0000 849.3033 -10306.6191 147.3247 -11155.9224 -10303.9272 149.6429 394.6945 437.9240 28873.3182 4.5125 4.3236
TCL: Running 100000 steps at 180 kelvin.
TCL: Setting parameter langevinTemp to 180
TCL: Running for 100000 steps
ETITLE: TS BOND ANGLE DIHED IMPRP ELECT VDW BOUNDARY MISC KINETIC TOTAL TEMP POTENTIAL TOTAL3 TEMPAVG PRESSURE GPRESSURE VOLUME PRESSAVG GPRESSAVG
ENERGY: 500000 0.0000 0.0000 0.0000 0.0000 -13432.9301 2277.0078 0.0000 0.0000 848.8787 -10307.0436 147.2510 -11155.9224 -10305.4181 147.2510 373.5754 438.9468 28873.3182 373.5754 438.9468
ENERGY: 600000 0.0000 0.0000 0.0000 0.0000 -12988.3695 2084.7089 0.0000 0.0000 1034.2960 -9869.3646 179.4145 -10903.6606 -9867.8757 180.0046 74.0192 57.2277 28672.3074 4.1419 4.1657
TCL: Running 100000 steps at 210 kelvin.
TCL: Setting parameter langevinTemp to 210
TCL: Running for 100000 steps
ETITLE: TS BOND ANGLE DIHED IMPRP ELECT VDW BOUNDARY MISC KINETIC TOTAL TEMP POTENTIAL TOTAL3 TEMPAVG PRESSURE GPRESSURE VOLUME PRESSAVG GPRESSAVG
ENERGY: 600000 0.0000 0.0000 0.0000 0.0000 -12988.3695 2084.7089 0.0000 0.0000 1033.7582 -9869.9025 179.3212 -10903.6606 -9867.9749 179.3212 -6.1386 56.5622 28672.3074 -6.1386 56.5622
ENERGY: 700000 0.0000 0.0000 0.0000 0.0000 -12218.7834 1841.8114 0.0000 0.0000 1217.4566 -9159.5154 211.1865 -10376.9720 -9157.4619 209.8744 249.6151 313.8423 28395.0508 2.2505 2.3130
TCL: Running 100000 steps at 240 kelvin.
TCL: Setting parameter langevinTemp to 240
TCL: Running for 100000 steps
ETITLE: TS BOND ANGLE DIHED IMPRP ELECT VDW BOUNDARY MISC KINETIC TOTAL TEMP POTENTIAL TOTAL3 TEMPAVG PRESSURE GPRESSURE VOLUME PRESSAVG GPRESSAVG
ENERGY: 700000 0.0000 0.0000 0.0000 0.0000 -12218.7834 1841.8114 0.0000 0.0000 1216.8423 -9160.1297 211.0799 -10376.9720 -9158.3019 211.0799 223.1358 314.7213 28395.0508 223.1358 314.7213
ENERGY: 800000 0.0000 0.0000 0.0000 0.0000 -11700.6545 1708.8102 0.0000 0.0000 1313.7920 -8678.0523 227.8974 -9991.8443 -8675.8919 240.6285 333.6804 412.1813 28615.3594 4.1200 4.1484
TCL: Running 100000 steps at 270 kelvin.
TCL: Setting parameter langevinTemp to 270
TCL: Running for 100000 steps
ETITLE: TS BOND ANGLE DIHED IMPRP ELECT VDW BOUNDARY MISC KINETIC TOTAL TEMP POTENTIAL TOTAL3 TEMPAVG PRESSURE GPRESSURE VOLUME PRESSAVG GPRESSAVG
ENERGY: 800000 0.0000 0.0000 0.0000 0.0000 -11700.6545 1708.8102 0.0000 0.0000 1313.0844 -8678.7599 227.7746 -9991.8443 -8676.0604 227.7746 311.0743 410.6415 28615.3594 311.0743 410.6415
ENERGY: 900000 0.0000 0.0000 0.0000 0.0000 -11111.6061 1561.4915 0.0000 0.0000 1560.5967 -7989.5179 270.7094 -9550.1146 -7984.9236 270.0204 199.3149 235.9046 29674.4768 4.0576 4.2786
TCL: Running 1000000 steps at 300 kelvin.
TCL: Setting parameter langevinTemp to 300
TCL: Running for 1000000 steps
ETITLE: TS BOND ANGLE DIHED IMPRP ELECT VDW BOUNDARY MISC KINETIC TOTAL TEMP POTENTIAL TOTAL3 TEMPAVG PRESSURE GPRESSURE VOLUME PRESSAVG GPRESSAVG
ENERGY: 900000 0.0000 0.0000 0.0000 0.0000 -11111.6061 1561.4915 0.0000 0.0000 1559.8582 -7990.2564 270.5813 -9550.1146 -7988.2726 270.5813 156.9972 237.5317 29674.4768 156.9972 237.5317
ENERGY: 1100000 0.0000 0.0000 0.0000 0.0000 -10588.7549 1397.4139 0.0000 0.0000 1736.3976 -7454.9434 301.2048 -9191.3409 -7451.9902 299.6079 -251.3326 -137.6868 30395.7595 3.1249 3.2006
ENERGY: 1300000 0.0000 0.0000 0.0000 0.0000 -10699.3151 1475.7260 0.0000 0.0000 1738.0743 -7485.5148 301.4956 -9223.5891 -7483.2029 300.5832 246.4752 328.0662 30235.1051 2.6424 2.6986
ENERGY: 1500000 0.0000 0.0000 0.0000 0.0000 -10628.6030 1444.3824 0.0000 0.0000 1768.7618 -7415.4588 306.8188 -9184.2206 -7411.8442 300.5865 343.3719 422.9128 30034.2678 3.4880 3.5261
ENERGY: 1700000 0.0000 0.0000 0.0000 0.0000 -10455.6622 1344.4005 0.0000 0.0000 1745.9026 -7365.3590 302.8536 -9111.2617 -7361.4927 300.7541 -527.5989 -448.5899 30437.9173 3.0302 2.7521
ENERGY: 1900000 0.0000 0.0000 0.0000 0.0000 -10586.2100 1382.0730 0.0000 0.0000 1722.4414 -7481.6956 298.7838 -9204.1370 -7478.4162 300.1007 -277.5755 -170.2162 30142.6997 3.0935 3.2816
TCL: Exiting due to exit command.
