Info: SIMULATION PARAMETERS:
Info: TIMESTEP               2
Info: NUMBER OF STEPS        0
Info: STEPS PER CYCLE        10
Info: PERIODIC CELL BASIS 1  36.592 0 0
Info: PERIODIC CELL BASIS 2  0 34.26 0
Info: PERIODIC CELL BASIS 3  0 0 34.68
Info: PERIODIC CELL CENTER   0 0 0
Info: WRAPPING WATERS AROUND PERIODIC BOUNDARIES ON OUTPUT.
Info: WRAPPING ALL CLUSTERS AROUND PERIODIC BOUNDARIES ON OUTPUT.
Info: FIRST LDB TIMESTEP     50
Info: LAST LDB TIMESTEP     -1
Info: HOM BACKGROUND SCALING 1
Info: PME BACKGROUND SCALING 1
Info: MIN ATOMS PER PATCH    40
Info: EMPTY PATCH LOAD       40 ATOMS
Info: INITIAL TEMPERATURE    300
Info: CENTER OF MASS MOVING INITIALLY? NO
Info: DIELECTRIC             1
Info: EXCLUDE                SCALED ONE-FOUR
Info: 1-4 ELECTROSTATICS SCALED BY 0.833333
Info: MODIFIED 1-4 VDW PARAMETERS WILL BE USED
Info: DCD FILENAME           mobley_8260524_equil.dcd
Info: DCD FREQUENCY          100000
Info: DCD FIRST STEP         100000
Info: DCD FILE WILL CONTAIN UNIT CELL DATA
Info: XST FILENAME           mobley_8260524_equil.xst
Info: XST FREQUENCY          100000
Info: NO VELOCITY DCD OUTPUT
Info: NO FORCE DCD OUTPUT
Info: OUTPUT FILENAME        mobley_8260524_equil
Info: BINARY OUTPUT FILES WILL BE USED
Info: RESTART FILENAME       mobley_8260524_equil.restart
Info: RESTART FREQUENCY      100000
Info: BINARY RESTART FILES WILL BE USED
Info: CUTOFF                 9
Info: PAIRLIST DISTANCE      11
Info: PAIRLIST SHRINK RATE   0.01
Info: PAIRLIST GROW RATE     0.01
Info: PAIRLIST TRIGGER       0.3
Info: PAIRLISTS PER CYCLE    2
Info: PAIRLISTS ENABLED
Info: MARGIN                 8
Info: HYDROGEN GROUP CUTOFF  2.5
Info: PATCH DIMENSION        21.5
Info: ENERGY OUTPUT STEPS    100000
Info: ENERGY EVALUATION STEPS    100000
Info: OUTPUT ENERGY PRECISION 4
Info: CROSSTERM ENERGY INCLUDED IN DIHEDRAL
Info: TIMING OUTPUT STEPS    1000000
Info: PRESSURE OUTPUT STEPS  100000
Info: FIXED ATOMS ACTIVE
Info: LANGEVIN DYNAMICS ACTIVE
Info: LANGEVIN TEMPERATURE   30
Info: LANGEVIN USING BBK INTEGRATOR
Info: LANGEVIN DAMPING COEFFICIENT IS 1 INVERSE PS
Info: LANGEVIN DYNAMICS APPLIED TO HYDROGENS
Info: LANGEVIN PISTON PRESSURE CONTROL ACTIVE
Info:        TARGET PRESSURE IS 1.01325 BAR
Info:     OSCILLATION PERIOD IS 50 FS
Info:             DECAY TIME IS 25 FS
Info:     PISTON TEMPERATURE IS 300 K
Info:       PRESSURE CONTROL IS GROUP-BASED
Info:    INITIAL STRAIN RATE IS 0 0 0
Info:       CELL FLUCTUATION IS ISOTROPIC
Info: PARTICLE MESH EWALD (PME) ACTIVE
Info: PME TOLERANCE               1e-06
Info: PME EWALD COEFFICIENT       0.348832
Info: PME INTERPOLATION ORDER     4
Info: PME GRID DIMENSIONS         40 36 36
Info: PME MAXIMUM GRID SPACING    1
Info: FULL ELECTROSTATIC EVALUATION FREQUENCY      2
Info: USING VERLET I (r-RESPA) MTS SCHEME.
Info: C1 SPLITTING OF LONG RANGE ELECTROSTATICS
Info: PLACING ATOMS IN PATCHES BY HYDROGEN GROUPS
Info: RIGID BONDS TO HYDROGEN : ALL
Info:         ERROR TOLERANCE : 1e-08
Info:          MAX ITERATIONS : 100
Info: RIGID WATER USING SETTLE ALGORITHM
Info: RANDOM NUMBER SEED     1743679770
Info: USE HYDROGEN BONDS?    NO
Info: Using AMBER format force field!
Info: AMBER PARM FILE        mobley_8260524.prmtop
Info: COORDINATE PDB         mobley_8260524.pdb
Info: Exclusions will be read from PARM file!
Info: SCNB (VDW SCALING)     2
Info: USING ARITHMETIC MEAN TO COMBINE L-J SIGMA PARAMETERS
Info: BINARY COORDINATES     mobley_8260524_min.coor
Info: SUMMARY OF PARAMETERS:
Info: 6 BONDS
Info: 4 ANGLES
Info:   4 HARMONIC
Info:   0 COSINE-BASED
Info: 1 DIHEDRAL
Info: 0 IMPROPER
Info: 0 CROSSTERM
Info: 0 VDW
Info: 21 VDW_PAIRS
Info: 0 NBTHOLE_PAIRS
Info: STRUCTURE SUMMARY:
Info: 2935 ATOMS
Info: 2934 BONDS
Info: 8 ANGLES
Info: 4 DIHEDRALS
Info: 0 IMPROPERS
Info: 0 CROSSTERMS
Info: 2946 EXCLUSIONS
Info: 7 FIXED ATOMS
Info: 2932 RIGID BONDS
Info: 4 RIGID BONDS BETWEEN FIXED ATOMS
Info: 5856 DEGREES OF FREEDOM
Info: 979 HYDROGEN GROUPS
Info: 4 ATOMS IN LARGEST HYDROGEN GROUP
Info: 979 MIGRATION GROUPS
Info: 4 ATOMS IN LARGEST MIGRATION GROUP
Info: 3 HYDROGEN GROUPS WITH ALL ATOMS FIXED
Info: TOTAL MASS = 17623.7 amu
Info: TOTAL CHARGE = 0.000100007 e
Info: MASS DENSITY = 0.673137 g/cm^3
Info: ATOM DENSITY = 0.067508 atoms/A^3
Info: ADDED 0 IMPLICIT EXCLUSIONS
Info: NONBONDED TABLE R-SQUARED SPACING: 0.0625
Info: NONBONDED TABLE SIZE: 705 POINTS
Info: REMOVING COM VELOCITY 0.0629072 0.246591 -0.0273151
TCL: Running for 100000 steps
ETITLE: TS BOND ANGLE DIHED IMPRP ELECT VDW BOUNDARY MISC KINETIC TOTAL TEMP POTENTIAL TOTAL3 TEMPAVG PRESSURE GPRESSURE VOLUME PRESSAVG GPRESSAVG
ENERGY: 0 0.0000 0.0000 0.0000 0.0000 -13569.7538 2383.6403 0.0000 0.0000 1755.3240 -9430.7895 301.6801 -11186.1135 -9430.4492 301.6801 424.8748 459.5702 43476.3018 424.8748 459.5702
ENERGY: 100000 0.0000 0.0000 0.0000 0.0000 -14209.7923 2559.8007 0.0000 0.0000 172.9553 -11477.0363 29.7251 -11649.9916 -11476.7186 30.9014 816.6888 849.6139 29617.8317 4.1456 4.1605
TCL: Running 100000 steps at 60 kelvin.
TCL: Setting parameter langevinTemp to 60
TCL: Running for 100000 steps
ETITLE: TS BOND ANGLE DIHED IMPRP ELECT VDW BOUNDARY MISC KINETIC TOTAL TEMP POTENTIAL TOTAL3 TEMPAVG PRESSURE GPRESSURE VOLUME PRESSAVG GPRESSAVG
ENERGY: 100000 0.0000 0.0000 0.0000 0.0000 -14209.7923 2559.8007 0.0000 0.0000 172.8705 -11477.1211 29.7105 -11649.9916 -11476.7726 29.7105 795.6681 849.7021 29617.8317 795.6681 849.7021
ENERGY: 200000 0.0000 0.0000 0.0000 0.0000 -14001.8367 2401.2999 0.0000 0.0000 349.0239 -11251.5129 59.9852 -11600.5368 -11250.6005 59.7705 -134.8763 -116.0099 29518.8578 3.7916 3.8213
TCL: Running 100000 steps at 90 kelvin.
TCL: Setting parameter langevinTemp to 90
TCL: Running for 100000 steps
ETITLE: TS BOND ANGLE DIHED IMPRP ELECT VDW BOUNDARY MISC KINETIC TOTAL TEMP POTENTIAL TOTAL3 TEMPAVG PRESSURE GPRESSURE VOLUME PRESSAVG GPRESSAVG
ENERGY: 200000 0.0000 0.0000 0.0000 0.0000 -14001.8367 2401.2999 0.0000 0.0000 348.8520 -11251.6847 59.9557 -11600.5368 -11250.9171 59.9557 -154.7332 -115.9302 29518.8578 -154.7332 -115.9302
ENERGY: 300000 0.0000 0.0000 0.0000 0.0000 -13762.4682 2239.9262 0.0000 0.0000 527.9138 -10994.6281 90.7303 -11522.5420 -10993.3812 90.0451 -1282.8255 -1224.6657 29801.6277 4.3056 4.2698
TCL: Running 100000 steps at 120 kelvin.
TCL: Setting parameter langevinTemp to 120
TCL: Running for 100000 steps
ETITLE: TS BOND ANGLE DIHED IMPRP ELECT VDW BOUNDARY MISC KINETIC TOTAL TEMP POTENTIAL TOTAL3 TEMPAVG PRESSURE GPRESSURE VOLUME PRESSAVG GPRESSAVG
ENERGY: 300000 0.0000 0.0000 0.0000 0.0000 -13762.4682 2239.9262 0.0000 0.0000 527.6566 -10994.8854 90.6861 -11522.5420 -10993.6677 90.6861 -1282.1617 -1225.0233 29801.6277 -1282.1617 -1225.0233
ENERGY: 400000 0.0000 0.0000 0.0000 0.0000 -13685.2745 2300.0048 0.0000 0.0000 708.5693 -10676.7005 121.7788 -11385.2697 -10674.5244 120.1675 -225.7580 -172.1758 29406.9802 3.4223 3.4705
TCL: Running 100000 steps at 150 kelvin.
TCL: Setting parameter langevinTemp to 150
TCL: Running for 100000 steps
ETITLE: TS BOND ANGLE DIHED IMPRP ELECT VDW BOUNDARY MISC KINETIC TOTAL TEMP POTENTIAL TOTAL3 TEMPAVG PRESSURE GPRESSURE VOLUME PRESSAVG GPRESSAVG
ENERGY: 400000 0.0000 0.0000 0.0000 0.0000 -13685.2745 2300.0048 0.0000 0.0000 708.2149 -10677.0549 121.7179 -11385.2697 -10675.6640 121.7179 -218.7370 -171.6131 29406.9802 -218.7370 -171.6131
ENERGY: 500000 0.0000 0.0000 0.0000 0.0000 -13547.7403 2270.3306 0.0000 0.0000 881.1045 -10396.3052 151.4317 -11277.4097 -10394.6162 150.2089 -143.9054 -102.9227 29373.6727 4.5011 4.4433
TCL: Running 100000 steps at 180 kelvin.
TCL: Setting parameter langevinTemp to 180
TCL: Running for 100000 steps
ETITLE: TS BOND ANGLE DIHED IMPRP ELECT VDW BOUNDARY MISC KINETIC TOTAL TEMP POTENTIAL TOTAL3 TEMPAVG PRESSURE GPRESSURE VOLUME PRESSAVG GPRESSAVG
ENERGY: 500000 0.0000 0.0000 0.0000 0.0000 -13547.7403 2270.3306 0.0000 0.0000 880.6701 -10396.7395 151.3570 -11277.4097 -10395.2708 151.3570 -148.1891 -103.3900 29373.6727 -148.1891 -103.3900
ENERGY: 600000 0.0000 0.0000 0.0000 0.0000 -13111.0075 2129.7931 0.0000 0.0000 1021.0355 -9960.1789 175.4810 -10981.2144 -9956.4750 179.8962 128.0909 146.1169 28532.3198 2.4428 2.3938
TCL: Running 100000 steps at 210 kelvin.
TCL: Setting parameter langevinTemp to 210
TCL: Running for 100000 steps
ETITLE: TS BOND ANGLE DIHED IMPRP ELECT VDW BOUNDARY MISC KINETIC TOTAL TEMP POTENTIAL TOTAL3 TEMPAVG PRESSURE GPRESSURE VOLUME PRESSAVG GPRESSAVG
ENERGY: 600000 0.0000 0.0000 0.0000 0.0000 -13111.0075 2129.7931 0.0000 0.0000 1020.5489 -9960.6655 175.3974 -10981.2144 -9958.8080 175.3974 80.8267 147.6646 28532.3198 80.8267 147.6646
ENERGY: 700000 0.0000 0.0000 0.0000 0.0000 -12308.6202 1812.1255 0.0000 0.0000 1214.9230 -9281.5717 208.8036 -10496.4947 -9277.5798 209.5890 -491.6177 -444.4544 28239.9665 2.8837 2.8521
TCL: Running 100000 steps at 240 kelvin.
TCL: Setting parameter langevinTemp to 240
TCL: Running for 100000 steps
ETITLE: TS BOND ANGLE DIHED IMPRP ELECT VDW BOUNDARY MISC KINETIC TOTAL TEMP POTENTIAL TOTAL3 TEMPAVG PRESSURE GPRESSURE VOLUME PRESSAVG GPRESSAVG
ENERGY: 700000 0.0000 0.0000 0.0000 0.0000 -12308.6202 1812.1255 0.0000 0.0000 1214.2964 -9282.1983 208.6960 -10496.4947 -9280.2913 208.6960 -527.3355 -443.0313 28239.9665 -527.3355 -443.0313
ENERGY: 800000 0.0000 0.0000 0.0000 0.0000 -11831.4928 1781.2631 0.0000 0.0000 1384.2098 -8666.0199 237.8982 -10050.2297 -8663.5496 240.0347 501.1952 617.8389 28849.3077 3.4796 3.5786
TCL: Running 100000 steps at 270 kelvin.
TCL: Setting parameter langevinTemp to 270
TCL: Running for 100000 steps
ETITLE: TS BOND ANGLE DIHED IMPRP ELECT VDW BOUNDARY MISC KINETIC TOTAL TEMP POTENTIAL TOTAL3 TEMPAVG PRESSURE GPRESSURE VOLUME PRESSAVG GPRESSAVG
ENERGY: 800000 0.0000 0.0000 0.0000 0.0000 -11831.4928 1781.2631 0.0000 0.0000 1383.5383 -8666.6914 237.7828 -10050.2297 -8664.8864 237.7828 543.7227 617.1135 28849.3077 543.7227 617.1135
ENERGY: 900000 0.0000 0.0000 0.0000 0.0000 -11124.4005 1461.4001 0.0000 0.0000 1589.4131 -8073.5873 273.1657 -9663.0004 -8070.5918 269.9257 -689.4639 -606.7204 29180.4706 2.6965 2.7151
TCL: Running 1000000 steps at 300 kelvin.
TCL: Setting parameter langevinTemp to 300
TCL: Running for 1000000 steps
ETITLE: TS BOND ANGLE DIHED IMPRP ELECT VDW BOUNDARY MISC KINETIC TOTAL TEMP POTENTIAL TOTAL3 TEMPAVG PRESSURE GPRESSURE VOLUME PRESSAVG GPRESSAVG
ENERGY: 900000 0.0000 0.0000 0.0000 0.0000 -11124.4005 1461.4001 0.0000 0.0000 1588.6265 -8074.3739 273.0305 -9663.0004 -8071.5062 273.0305 -687.2988 -606.4544 29180.4706 -687.2988 -606.4544
ENERGY: 1100000 0.0000 0.0000 0.0000 0.0000 -10674.0846 1469.9440 0.0000 0.0000 1686.1725 -7517.9681 289.7953 -9204.1406 -7513.5495 300.2276 304.6687 439.2663 30106.7566 4.0511 3.8888
ENERGY: 1300000 0.0000 0.0000 0.0000 0.0000 -10585.9830 1347.9752 0.0000 0.0000 1705.8761 -7532.1317 293.1817 -9238.0077 -7529.9348 300.7848 -499.2924 -422.0674 29868.8424 3.0094 3.0518
ENERGY: 1500000 0.0000 0.0000 0.0000 0.0000 -10650.1086 1395.8653 0.0000 0.0000 1837.0243 -7417.2189 315.7216 -9254.2433 -7414.6131 300.3719 -345.4355 -254.2118 30514.3933 4.1758 4.2536
ENERGY: 1700000 0.0000 0.0000 0.0000 0.0000 -10596.3190 1400.6455 0.0000 0.0000 1767.8871 -7427.7864 303.8392 -9195.6734 -7425.1550 300.5426 -24.5960 13.0756 30304.2319 2.8939 3.0215
ENERGY: 1900000 0.0000 0.0000 0.0000 0.0000 -10524.8338 1331.7450 0.0000 0.0000 1730.0411 -7463.0477 297.3348 -9193.0888 -7460.6284 299.9233 -581.0940 -474.3282 30101.6905 3.8434 3.9209
TCL: Exiting due to exit command.
