Info: SIMULATION PARAMETERS:
Info: TIMESTEP               2
Info: NUMBER OF STEPS        0
Info: STEPS PER CYCLE        10
Info: PERIODIC CELL BASIS 1  37.133 0 0
Info: PERIODIC CELL BASIS 2  0 34.26 0
Info: PERIODIC CELL BASIS 3  0 0 34.229
Info: PERIODIC CELL CENTER   0 0 0
Info: WRAPPING WATERS AROUND PERIODIC BOUNDARIES ON OUTPUT.
Info: WRAPPING ALL CLUSTERS AROUND PERIODIC BOUNDARIES ON OUTPUT.
Info: FIRST LDB TIMESTEP     50
Info: LAST LDB TIMESTEP     -1
Info: HOM BACKGROUND SCALING 1
Info: PME BACKGROUND SCALING 1
Info: MIN ATOMS PER PATCH    40
Info: EMPTY PATCH LOAD       40 ATOMS
Info: INITIAL TEMPERATURE    300
Info: CENTER OF MASS MOVING INITIALLY? NO
Info: DIELECTRIC             1
Info: EXCLUDE                SCALED ONE-FOUR
Info: 1-4 ELECTROSTATICS SCALED BY 0.833333
Info: MODIFIED 1-4 VDW PARAMETERS WILL BE USED
Info: DCD FILENAME           mobley_9185328_equil.dcd
Info: DCD FREQUENCY          100000
Info: DCD FIRST STEP         100000
Info: DCD FILE WILL CONTAIN UNIT CELL DATA
Info: XST FILENAME           mobley_9185328_equil.xst
Info: XST FREQUENCY          100000
Info: NO VELOCITY DCD OUTPUT
Info: NO FORCE DCD OUTPUT
Info: OUTPUT FILENAME        mobley_9185328_equil
Info: BINARY OUTPUT FILES WILL BE USED
Info: RESTART FILENAME       mobley_9185328_equil.restart
Info: RESTART FREQUENCY      100000
Info: BINARY RESTART FILES WILL BE USED
Info: CUTOFF                 9
Info: PAIRLIST DISTANCE      11
Info: PAIRLIST SHRINK RATE   0.01
Info: PAIRLIST GROW RATE     0.01
Info: PAIRLIST TRIGGER       0.3
Info: PAIRLISTS PER CYCLE    2
Info: PAIRLISTS ENABLED
Info: MARGIN                 8
Info: HYDROGEN GROUP CUTOFF  2.5
Info: PATCH DIMENSION        21.5
Info: ENERGY OUTPUT STEPS    100000
Info: ENERGY EVALUATION STEPS    100000
Info: OUTPUT ENERGY PRECISION 4
Info: CROSSTERM ENERGY INCLUDED IN DIHEDRAL
Info: TIMING OUTPUT STEPS    1000000
Info: PRESSURE OUTPUT STEPS  100000
Info: FIXED ATOMS ACTIVE
Info: LANGEVIN DYNAMICS ACTIVE
Info: LANGEVIN TEMPERATURE   30
Info: LANGEVIN USING BBK INTEGRATOR
Info: LANGEVIN DAMPING COEFFICIENT IS 1 INVERSE PS
Info: LANGEVIN DYNAMICS APPLIED TO HYDROGENS
Info: LANGEVIN PISTON PRESSURE CONTROL ACTIVE
Info:        TARGET PRESSURE IS 1.01325 BAR
Info:     OSCILLATION PERIOD IS 50 FS
Info:             DECAY TIME IS 25 FS
Info:     PISTON TEMPERATURE IS 300 K
Info:       PRESSURE CONTROL IS GROUP-BASED
Info:    INITIAL STRAIN RATE IS 0 0 0
Info:       CELL FLUCTUATION IS ISOTROPIC
Info: PARTICLE MESH EWALD (PME) ACTIVE
Info: PME TOLERANCE               1e-06
Info: PME EWALD COEFFICIENT       0.348832
Info: PME INTERPOLATION ORDER     4
Info: PME GRID DIMENSIONS         40 36 36
Info: PME MAXIMUM GRID SPACING    1
Info: FULL ELECTROSTATIC EVALUATION FREQUENCY      2
Info: USING VERLET I (r-RESPA) MTS SCHEME.
Info: C1 SPLITTING OF LONG RANGE ELECTROSTATICS
Info: PLACING ATOMS IN PATCHES BY HYDROGEN GROUPS
Info: RIGID BONDS TO HYDROGEN : ALL
Info:         ERROR TOLERANCE : 1e-08
Info:          MAX ITERATIONS : 100
Info: RIGID WATER USING SETTLE ALGORITHM
Info: RANDOM NUMBER SEED     1743901032
Info: USE HYDROGEN BONDS?    NO
Info: Using AMBER format force field!
Info: AMBER PARM FILE        mobley_9185328.prmtop
Info: COORDINATE PDB         mobley_9185328.pdb
Info: Exclusions will be read from PARM file!
Info: SCNB (VDW SCALING)     2
Info: USING ARITHMETIC MEAN TO COMBINE L-J SIGMA PARAMETERS
Info: BINARY COORDINATES     mobley_9185328_min.coor
Info: SUMMARY OF PARAMETERS:
Info: 7 BONDS
Info: 9 ANGLES
Info:   9 HARMONIC
Info:   0 COSINE-BASED
Info: 4 DIHEDRAL
Info: 0 IMPROPER
Info: 0 CROSSTERM
Info: 0 VDW
Info: 28 VDW_PAIRS
Info: 0 NBTHOLE_PAIRS
Info: STRUCTURE SUMMARY:
Info: 2911 ATOMS
Info: 2910 BONDS
Info: 21 ANGLES
Info: 24 DIHEDRALS
Info: 0 IMPROPERS
Info: 0 CROSSTERMS
Info: 2955 EXCLUSIONS
Info: 13 FIXED ATOMS
Info: 2907 RIGID BONDS
Info: 9 RIGID BONDS BETWEEN FIXED ATOMS
Info: 5796 DEGREES OF FREEDOM
Info: 970 HYDROGEN GROUPS
Info: 4 ATOMS IN LARGEST HYDROGEN GROUP
Info: 970 MIGRATION GROUPS
Info: 4 ATOMS IN LARGEST MIGRATION GROUP
Info: 4 HYDROGEN GROUPS WITH ALL ATOMS FIXED
Info: TOTAL MASS = 17462.6 amu
Info: TOTAL CHARGE = -0.000300016 e
Info: MASS DENSITY = 0.665926 g/cm^3
Info: ATOM DENSITY = 0.0668499 atoms/A^3
Info: ADDED 0 IMPLICIT EXCLUSIONS
Info: NONBONDED TABLE R-SQUARED SPACING: 0.0625
Info: NONBONDED TABLE SIZE: 705 POINTS
Info: REMOVING COM VELOCITY 0.245437 -0.0663474 -0.106949
TCL: Running for 100000 steps
ETITLE: TS BOND ANGLE DIHED IMPRP ELECT VDW BOUNDARY MISC KINETIC TOTAL TEMP POTENTIAL TOTAL3 TEMPAVG PRESSURE GPRESSURE VOLUME PRESSAVG GPRESSAVG
ENERGY: 0 0.0000 0.0000 0.0000 0.0000 -13495.8435 2328.2658 0.0000 0.0000 1715.0026 -9452.5751 297.8014 -11167.5777 -9452.2535 297.8014 244.7169 281.8214 43545.3322 244.7169 281.8214
ENERGY: 100000 0.0000 0.0000 0.0000 0.0000 -14079.1962 2428.0233 0.0000 0.0000 173.7385 -11477.4344 30.1688 -11651.1729 -11476.7583 30.9987 -76.8845 -36.9874 28798.4353 4.6209 4.6459
TCL: Running 100000 steps at 60 kelvin.
TCL: Setting parameter langevinTemp to 60
TCL: Running for 100000 steps
ETITLE: TS BOND ANGLE DIHED IMPRP ELECT VDW BOUNDARY MISC KINETIC TOTAL TEMP POTENTIAL TOTAL3 TEMPAVG PRESSURE GPRESSURE VOLUME PRESSAVG GPRESSAVG
ENERGY: 100000 0.0000 0.0000 0.0000 0.0000 -14079.1962 2428.0233 0.0000 0.0000 173.6516 -11477.5213 30.1537 -11651.1729 -11477.1047 30.1537 -98.2131 -36.7768 28798.4353 -98.2131 -36.7768
ENERGY: 200000 0.0000 0.0000 0.0000 0.0000 -13831.4583 2272.4427 0.0000 0.0000 336.4717 -11222.5439 58.4266 -11559.0156 -11221.7775 60.0015 -943.0925 -893.1891 28905.5412 4.0967 4.0531
TCL: Running 100000 steps at 90 kelvin.
TCL: Setting parameter langevinTemp to 90
TCL: Running for 100000 steps
ETITLE: TS BOND ANGLE DIHED IMPRP ELECT VDW BOUNDARY MISC KINETIC TOTAL TEMP POTENTIAL TOTAL3 TEMPAVG PRESSURE GPRESSURE VOLUME PRESSAVG GPRESSAVG
ENERGY: 200000 0.0000 0.0000 0.0000 0.0000 -13831.4583 2272.4427 0.0000 0.0000 336.2980 -11222.7176 58.3964 -11559.0156 -11221.9892 58.3964 -954.6517 -893.4973 28905.5412 -954.6517 -893.4973
ENERGY: 300000 0.0000 0.0000 0.0000 0.0000 -13804.3959 2334.7513 0.0000 0.0000 507.7552 -10961.8894 88.1691 -11469.6446 -10960.4344 90.0083 -149.3074 -70.8564 28812.2046 3.1241 3.0668
TCL: Running 100000 steps at 120 kelvin.
TCL: Setting parameter langevinTemp to 120
TCL: Running for 100000 steps
ETITLE: TS BOND ANGLE DIHED IMPRP ELECT VDW BOUNDARY MISC KINETIC TOTAL TEMP POTENTIAL TOTAL3 TEMPAVG PRESSURE GPRESSURE VOLUME PRESSAVG GPRESSAVG
ENERGY: 300000 0.0000 0.0000 0.0000 0.0000 -13804.3959 2334.7513 0.0000 0.0000 507.5049 -10962.1397 88.1256 -11469.6446 -10961.3589 88.1256 -127.7950 -70.9611 28812.2046 -127.7950 -70.9611
ENERGY: 400000 0.0000 0.0000 0.0000 0.0000 -13583.2405 2247.2717 0.0000 0.0000 700.0043 -10635.9644 121.5522 -11335.9687 -10634.0089 119.8742 -312.4581 -249.8681 28808.8565 1.5950 1.6387
TCL: Running 100000 steps at 150 kelvin.
TCL: Setting parameter langevinTemp to 150
TCL: Running for 100000 steps
ETITLE: TS BOND ANGLE DIHED IMPRP ELECT VDW BOUNDARY MISC KINETIC TOTAL TEMP POTENTIAL TOTAL3 TEMPAVG PRESSURE GPRESSURE VOLUME PRESSAVG GPRESSAVG
ENERGY: 400000 0.0000 0.0000 0.0000 0.0000 -13583.2405 2247.2717 0.0000 0.0000 699.6627 -10636.3060 121.4929 -11335.9687 -10634.6717 121.4929 -310.4573 -249.2912 28808.8565 -310.4573 -249.2912
ENERGY: 500000 0.0000 0.0000 0.0000 0.0000 -13321.7532 2146.4296 0.0000 0.0000 886.0030 -10289.3206 153.8499 -11175.3236 -10285.5718 149.6993 -527.2432 -506.0431 28749.0542 1.7629 1.8198
TCL: Running 100000 steps at 180 kelvin.
TCL: Setting parameter langevinTemp to 180
TCL: Running for 100000 steps
ETITLE: TS BOND ANGLE DIHED IMPRP ELECT VDW BOUNDARY MISC KINETIC TOTAL TEMP POTENTIAL TOTAL3 TEMPAVG PRESSURE GPRESSURE VOLUME PRESSAVG GPRESSAVG
ENERGY: 500000 0.0000 0.0000 0.0000 0.0000 -13321.7532 2146.4296 0.0000 0.0000 885.5525 -10289.7711 153.7717 -11175.3236 -10288.2023 153.7717 -553.8677 -504.5523 28749.0542 -553.8677 -504.5523
ENERGY: 600000 0.0000 0.0000 0.0000 0.0000 -12996.6263 2096.2900 0.0000 0.0000 1050.5697 -9849.7665 182.4261 -10900.3362 -9847.8268 180.1048 86.2899 148.2981 28355.8537 3.7686 3.8001
TCL: Running 100000 steps at 210 kelvin.
TCL: Setting parameter langevinTemp to 210
TCL: Running for 100000 steps
ETITLE: TS BOND ANGLE DIHED IMPRP ELECT VDW BOUNDARY MISC KINETIC TOTAL TEMP POTENTIAL TOTAL3 TEMPAVG PRESSURE GPRESSURE VOLUME PRESSAVG GPRESSAVG
ENERGY: 600000 0.0000 0.0000 0.0000 0.0000 -12996.6263 2096.2900 0.0000 0.0000 1050.0773 -9850.2589 182.3406 -10900.3362 -9848.6139 182.3406 85.6415 147.6856 28355.8537 85.6415 147.6856
ENERGY: 700000 0.0000 0.0000 0.0000 0.0000 -12202.6890 1782.6426 0.0000 0.0000 1213.6160 -9206.4304 210.7382 -10420.0464 -9204.6170 210.6244 -785.7156 -624.7324 28541.9543 4.7771 4.5791
TCL: Running 100000 steps at 240 kelvin.
TCL: Setting parameter langevinTemp to 240
TCL: Running for 100000 steps
ETITLE: TS BOND ANGLE DIHED IMPRP ELECT VDW BOUNDARY MISC KINETIC TOTAL TEMP POTENTIAL TOTAL3 TEMPAVG PRESSURE GPRESSURE VOLUME PRESSAVG GPRESSAVG
ENERGY: 700000 0.0000 0.0000 0.0000 0.0000 -12202.6890 1782.6426 0.0000 0.0000 1213.0239 -9207.0226 210.6354 -10420.0464 -9204.8636 210.6354 -708.0636 -625.0461 28541.9543 -708.0636 -625.0461
ENERGY: 800000 0.0000 0.0000 0.0000 0.0000 -11746.5147 1763.4435 0.0000 0.0000 1394.1120 -8588.9592 242.0804 -9983.0712 -8586.6086 239.6223 591.2432 728.4582 28637.5385 2.6916 2.5056
TCL: Running 100000 steps at 270 kelvin.
TCL: Setting parameter langevinTemp to 270
TCL: Running for 100000 steps
ETITLE: TS BOND ANGLE DIHED IMPRP ELECT VDW BOUNDARY MISC KINETIC TOTAL TEMP POTENTIAL TOTAL3 TEMPAVG PRESSURE GPRESSURE VOLUME PRESSAVG GPRESSAVG
ENERGY: 800000 0.0000 0.0000 0.0000 0.0000 -11746.5147 1763.4435 0.0000 0.0000 1393.4201 -8589.6511 241.9603 -9983.0712 -8586.8297 241.9603 637.9191 727.5142 28637.5385 637.9191 727.5142
ENERGY: 900000 0.0000 0.0000 0.0000 0.0000 -11187.8512 1551.2615 0.0000 0.0000 1600.8113 -8035.7784 277.9727 -9636.5897 -8033.5767 269.2555 -149.6481 -47.2452 29540.3143 3.6046 3.7949
TCL: Running 1000000 steps at 300 kelvin.
TCL: Setting parameter langevinTemp to 300
TCL: Running for 1000000 steps
ETITLE: TS BOND ANGLE DIHED IMPRP ELECT VDW BOUNDARY MISC KINETIC TOTAL TEMP POTENTIAL TOTAL3 TEMPAVG PRESSURE GPRESSURE VOLUME PRESSAVG GPRESSAVG
ENERGY: 900000 0.0000 0.0000 0.0000 0.0000 -11187.8512 1551.2615 0.0000 0.0000 1600.0656 -8036.5241 277.8432 -9636.5897 -8034.0978 277.8432 -135.8541 -48.1241 29540.3143 -135.8541 -48.1241
ENERGY: 1100000 0.0000 0.0000 0.0000 0.0000 -10668.9846 1480.5980 0.0000 0.0000 1726.4114 -7461.9751 299.7825 -9188.3865 -7456.0997 300.3332 621.4089 660.7500 30121.4971 3.0459 2.9112
ENERGY: 1300000 0.0000 0.0000 0.0000 0.0000 -10649.7856 1395.1432 0.0000 0.0000 1709.1106 -7545.5318 296.7783 -9254.6424 -7541.9992 300.1645 -31.1819 48.6789 29431.7296 3.5661 3.4520
ENERGY: 1500000 0.0000 0.0000 0.0000 0.0000 -10576.5614 1393.4225 0.0000 0.0000 1721.6384 -7461.5005 298.9537 -9183.1389 -7458.3519 300.3506 -202.6019 -143.2534 30095.8657 2.9124 2.6056
ENERGY: 1700000 0.0000 0.0000 0.0000 0.0000 -10648.2690 1412.9125 0.0000 0.0000 1726.1356 -7509.2209 299.7346 -9235.3565 -7506.2172 300.4967 -216.1739 -190.0025 30137.7826 3.3679 3.2791
ENERGY: 1900000 0.0000 0.0000 0.0000 0.0000 -10470.5383 1298.2530 0.0000 0.0000 1732.8234 -7439.4619 300.8959 -9172.2853 -7437.2699 300.0817 -986.7520 -888.7865 30327.8676 3.1070 3.1629
TCL: Exiting due to exit command.
