Info: SIMULATION PARAMETERS:
Info: TIMESTEP               2
Info: NUMBER OF STEPS        0
Info: STEPS PER CYCLE        10
Info: PERIODIC CELL BASIS 1  34.986 0 0
Info: PERIODIC CELL BASIS 2  0 35.411 0
Info: PERIODIC CELL BASIS 3  0 0 34.954
Info: PERIODIC CELL CENTER   0 0 0
Info: WRAPPING WATERS AROUND PERIODIC BOUNDARIES ON OUTPUT.
Info: WRAPPING ALL CLUSTERS AROUND PERIODIC BOUNDARIES ON OUTPUT.
Info: FIRST LDB TIMESTEP     50
Info: LAST LDB TIMESTEP     -1
Info: HOM BACKGROUND SCALING 1
Info: PME BACKGROUND SCALING 1
Info: MIN ATOMS PER PATCH    40
Info: EMPTY PATCH LOAD       40 ATOMS
Info: INITIAL TEMPERATURE    300
Info: CENTER OF MASS MOVING INITIALLY? NO
Info: DIELECTRIC             1
Info: EXCLUDE                SCALED ONE-FOUR
Info: 1-4 ELECTROSTATICS SCALED BY 0.833333
Info: MODIFIED 1-4 VDW PARAMETERS WILL BE USED
Info: DCD FILENAME           mobley_6359135_equil.dcd
Info: DCD FREQUENCY          100000
Info: DCD FIRST STEP         100000
Info: DCD FILE WILL CONTAIN UNIT CELL DATA
Info: XST FILENAME           mobley_6359135_equil.xst
Info: XST FREQUENCY          100000
Info: NO VELOCITY DCD OUTPUT
Info: NO FORCE DCD OUTPUT
Info: OUTPUT FILENAME        mobley_6359135_equil
Info: BINARY OUTPUT FILES WILL BE USED
Info: RESTART FILENAME       mobley_6359135_equil.restart
Info: RESTART FREQUENCY      100000
Info: BINARY RESTART FILES WILL BE USED
Info: CUTOFF                 9
Info: PAIRLIST DISTANCE      11
Info: PAIRLIST SHRINK RATE   0.01
Info: PAIRLIST GROW RATE     0.01
Info: PAIRLIST TRIGGER       0.3
Info: PAIRLISTS PER CYCLE    2
Info: PAIRLISTS ENABLED
Info: MARGIN                 8
Info: HYDROGEN GROUP CUTOFF  2.5
Info: PATCH DIMENSION        21.5
Info: ENERGY OUTPUT STEPS    100000
Info: ENERGY EVALUATION STEPS    100000
Info: OUTPUT ENERGY PRECISION 4
Info: CROSSTERM ENERGY INCLUDED IN DIHEDRAL
Info: TIMING OUTPUT STEPS    1000000
Info: PRESSURE OUTPUT STEPS  100000
Info: FIXED ATOMS ACTIVE
Info: LANGEVIN DYNAMICS ACTIVE
Info: LANGEVIN TEMPERATURE   30
Info: LANGEVIN USING BBK INTEGRATOR
Info: LANGEVIN DAMPING COEFFICIENT IS 1 INVERSE PS
Info: LANGEVIN DYNAMICS APPLIED TO HYDROGENS
Info: LANGEVIN PISTON PRESSURE CONTROL ACTIVE
Info:        TARGET PRESSURE IS 1.01325 BAR
Info:     OSCILLATION PERIOD IS 50 FS
Info:             DECAY TIME IS 25 FS
Info:     PISTON TEMPERATURE IS 300 K
Info:       PRESSURE CONTROL IS GROUP-BASED
Info:    INITIAL STRAIN RATE IS 0 0 0
Info:       CELL FLUCTUATION IS ISOTROPIC
Info: PARTICLE MESH EWALD (PME) ACTIVE
Info: PME TOLERANCE               1e-06
Info: PME EWALD COEFFICIENT       0.348832
Info: PME INTERPOLATION ORDER     4
Info: PME GRID DIMENSIONS         36 36 36
Info: PME MAXIMUM GRID SPACING    1
Info: FULL ELECTROSTATIC EVALUATION FREQUENCY      2
Info: USING VERLET I (r-RESPA) MTS SCHEME.
Info: C1 SPLITTING OF LONG RANGE ELECTROSTATICS
Info: PLACING ATOMS IN PATCHES BY HYDROGEN GROUPS
Info: RIGID BONDS TO HYDROGEN : ALL
Info:         ERROR TOLERANCE : 1e-08
Info:          MAX ITERATIONS : 100
Info: RIGID WATER USING SETTLE ALGORITHM
Info: RANDOM NUMBER SEED     1743678462
Info: USE HYDROGEN BONDS?    NO
Info: Using AMBER format force field!
Info: AMBER PARM FILE        mobley_6359135.prmtop
Info: COORDINATE PDB         mobley_6359135.pdb
Info: Exclusions will be read from PARM file!
Info: SCNB (VDW SCALING)     2
Info: USING ARITHMETIC MEAN TO COMBINE L-J SIGMA PARAMETERS
Info: BINARY COORDINATES     mobley_6359135_min.coor
Info: SUMMARY OF PARAMETERS:
Info: 3 BONDS
Info: 1 ANGLES
Info:   1 HARMONIC
Info:   0 COSINE-BASED
Info: 0 DIHEDRAL
Info: 0 IMPROPER
Info: 0 CROSSTERM
Info: 0 VDW
Info: 10 VDW_PAIRS
Info: 0 NBTHOLE_PAIRS
Info: STRUCTURE SUMMARY:
Info: 2903 ATOMS
Info: 2902 BONDS
Info: 6 ANGLES
Info: 0 DIHEDRALS
Info: 0 IMPROPERS
Info: 0 CROSSTERMS
Info: 2908 EXCLUSIONS
Info: 5 FIXED ATOMS
Info: 2898 RIGID BONDS
Info: 0 RIGID BONDS BETWEEN FIXED ATOMS
Info: 5796 DEGREES OF FREEDOM
Info: 971 HYDROGEN GROUPS
Info: 3 ATOMS IN LARGEST HYDROGEN GROUP
Info: 971 MIGRATION GROUPS
Info: 3 ATOMS IN LARGEST MIGRATION GROUP
Info: 5 HYDROGEN GROUPS WITH ALL ATOMS FIXED
Info: TOTAL MASS = 17557.3 amu
Info: TOTAL CHARGE = -9.99868e-05 e
Info: MASS DENSITY = 0.673266 g/cm^3
Info: ATOM DENSITY = 0.0670375 atoms/A^3
Info: ADDED 0 IMPLICIT EXCLUSIONS
Info: NONBONDED TABLE R-SQUARED SPACING: 0.0625
Info: NONBONDED TABLE SIZE: 705 POINTS
Info: REMOVING COM VELOCITY 0.0418143 -0.194578 0.234456
TCL: Running for 100000 steps
ETITLE: TS BOND ANGLE DIHED IMPRP ELECT VDW BOUNDARY MISC KINETIC TOTAL TEMP POTENTIAL TOTAL3 TEMPAVG PRESSURE GPRESSURE VOLUME PRESSAVG GPRESSAVG
ENERGY: 0 0.0000 0.0000 0.0000 0.0000 -13481.7159 2397.1899 0.0000 0.0000 1710.9329 -9373.5931 297.0948 -11084.5260 -9373.2856 297.0948 627.5547 658.9251 43304.1347 627.5547 658.9251
ENERGY: 100000 0.0000 0.0000 0.0000 0.0000 -14170.9935 2553.7172 0.0000 0.0000 175.0033 -11442.2730 30.3884 -11617.2763 -11441.7164 30.9913 843.8917 893.2908 28099.2462 5.6981 5.6664
TCL: Running 100000 steps at 60 kelvin.
TCL: Setting parameter langevinTemp to 60
TCL: Running for 100000 steps
ETITLE: TS BOND ANGLE DIHED IMPRP ELECT VDW BOUNDARY MISC KINETIC TOTAL TEMP POTENTIAL TOTAL3 TEMPAVG PRESSURE GPRESSURE VOLUME PRESSAVG GPRESSAVG
ENERGY: 100000 0.0000 0.0000 0.0000 0.0000 -14170.9935 2553.7172 0.0000 0.0000 174.9148 -11442.3615 30.3731 -11617.2763 -11441.9907 30.3731 842.0627 893.4801 28099.2462 842.0627 893.4801
ENERGY: 200000 0.0000 0.0000 0.0000 0.0000 -13915.9990 2379.8913 0.0000 0.0000 351.6742 -11184.4335 61.0664 -11536.1077 -11183.7090 59.8763 -329.0692 -255.8351 28372.1378 2.9566 3.0382
TCL: Running 100000 steps at 90 kelvin.
TCL: Setting parameter langevinTemp to 90
TCL: Running for 100000 steps
ETITLE: TS BOND ANGLE DIHED IMPRP ELECT VDW BOUNDARY MISC KINETIC TOTAL TEMP POTENTIAL TOTAL3 TEMPAVG PRESSURE GPRESSURE VOLUME PRESSAVG GPRESSAVG
ENERGY: 200000 0.0000 0.0000 0.0000 0.0000 -13915.9990 2379.8913 0.0000 0.0000 351.4966 -11184.6111 61.0356 -11536.1077 -11183.8668 61.0356 -313.5515 -256.1716 28372.1378 -313.5515 -256.1716
ENERGY: 300000 0.0000 0.0000 0.0000 0.0000 -13803.8337 2347.0646 0.0000 0.0000 519.5871 -10937.1819 90.2236 -11456.7690 -10936.2173 89.9737 -257.3810 -198.3896 28453.4614 3.7530 3.7503
TCL: Running 100000 steps at 120 kelvin.
TCL: Setting parameter langevinTemp to 120
TCL: Running for 100000 steps
ETITLE: TS BOND ANGLE DIHED IMPRP ELECT VDW BOUNDARY MISC KINETIC TOTAL TEMP POTENTIAL TOTAL3 TEMPAVG PRESSURE GPRESSURE VOLUME PRESSAVG GPRESSAVG
ENERGY: 300000 0.0000 0.0000 0.0000 0.0000 -13803.8337 2347.0646 0.0000 0.0000 519.3266 -10937.4424 90.1784 -11456.7690 -10936.4487 90.1784 -259.8865 -198.0916 28453.4614 -259.8865 -198.0916
ENERGY: 400000 0.0000 0.0000 0.0000 0.0000 -13627.7198 2333.7983 0.0000 0.0000 689.6685 -10604.2529 119.7574 -11293.9214 -10601.7755 119.8704 181.4681 182.2872 28622.8704 2.3207 2.3050
TCL: Running 100000 steps at 150 kelvin.
TCL: Setting parameter langevinTemp to 150
TCL: Running for 100000 steps
ETITLE: TS BOND ANGLE DIHED IMPRP ELECT VDW BOUNDARY MISC KINETIC TOTAL TEMP POTENTIAL TOTAL3 TEMPAVG PRESSURE GPRESSURE VOLUME PRESSAVG GPRESSAVG
ENERGY: 400000 0.0000 0.0000 0.0000 0.0000 -13627.7198 2333.7983 0.0000 0.0000 689.3076 -10604.6138 119.6947 -11293.9214 -10603.4243 119.6947 130.8390 182.9416 28622.8704 130.8390 182.9416
ENERGY: 500000 0.0000 0.0000 0.0000 0.0000 -13387.8999 2238.2892 0.0000 0.0000 864.1549 -10285.4557 150.0561 -11149.6107 -10283.4319 150.0838 -59.8986 -56.4714 28685.7210 3.3093 3.3878
TCL: Running 100000 steps at 180 kelvin.
TCL: Setting parameter langevinTemp to 180
TCL: Running for 100000 steps
ETITLE: TS BOND ANGLE DIHED IMPRP ELECT VDW BOUNDARY MISC KINETIC TOTAL TEMP POTENTIAL TOTAL3 TEMPAVG PRESSURE GPRESSURE VOLUME PRESSAVG GPRESSAVG
ENERGY: 500000 0.0000 0.0000 0.0000 0.0000 -13387.8999 2238.2892 0.0000 0.0000 863.7125 -10285.8982 149.9793 -11149.6107 -10283.7666 149.9793 -107.1624 -56.7444 28685.7210 -107.1624 -56.7444
ENERGY: 600000 0.0000 0.0000 0.0000 0.0000 -12924.1713 2067.4443 0.0000 0.0000 1056.3149 -9800.4120 183.4237 -10856.7269 -9797.9468 180.0721 -156.8383 -65.4365 28361.8162 3.6489 3.8035
TCL: Running 100000 steps at 210 kelvin.
TCL: Setting parameter langevinTemp to 210
TCL: Running for 100000 steps
ETITLE: TS BOND ANGLE DIHED IMPRP ELECT VDW BOUNDARY MISC KINETIC TOTAL TEMP POTENTIAL TOTAL3 TEMPAVG PRESSURE GPRESSURE VOLUME PRESSAVG GPRESSAVG
ENERGY: 600000 0.0000 0.0000 0.0000 0.0000 -12924.1713 2067.4443 0.0000 0.0000 1055.8041 -9800.9229 183.3350 -10856.7269 -9798.8828 183.3350 -134.5574 -64.2028 28361.8162 -134.5574 -64.2028
ENERGY: 700000 0.0000 0.0000 0.0000 0.0000 -12346.3116 1913.0384 0.0000 0.0000 1238.8655 -9194.4077 215.1227 -10433.2732 -9191.4702 209.4837 111.5843 205.5088 28483.3962 3.3775 3.1519
TCL: Running 100000 steps at 240 kelvin.
TCL: Setting parameter langevinTemp to 240
TCL: Running for 100000 steps
ETITLE: TS BOND ANGLE DIHED IMPRP ELECT VDW BOUNDARY MISC KINETIC TOTAL TEMP POTENTIAL TOTAL3 TEMPAVG PRESSURE GPRESSURE VOLUME PRESSAVG GPRESSAVG
ENERGY: 700000 0.0000 0.0000 0.0000 0.0000 -12346.3116 1913.0384 0.0000 0.0000 1238.2789 -9194.9943 215.0208 -10433.2732 -9192.6688 215.0208 135.1441 205.0123 28483.3962 135.1441 205.0123
ENERGY: 800000 0.0000 0.0000 0.0000 0.0000 -11571.8150 1704.2173 0.0000 0.0000 1398.3341 -8469.2637 242.8136 -9867.5978 -8467.4596 240.0104 481.2754 538.6102 28484.9310 3.7147 3.8067
TCL: Running 100000 steps at 270 kelvin.
TCL: Setting parameter langevinTemp to 270
TCL: Running for 100000 steps
ETITLE: TS BOND ANGLE DIHED IMPRP ELECT VDW BOUNDARY MISC KINETIC TOTAL TEMP POTENTIAL TOTAL3 TEMPAVG PRESSURE GPRESSURE VOLUME PRESSAVG GPRESSAVG
ENERGY: 800000 0.0000 0.0000 0.0000 0.0000 -11571.8150 1704.2173 0.0000 0.0000 1397.6349 -8469.9628 242.6922 -9867.5978 -8467.5350 242.6922 462.5340 536.1120 28484.9310 462.5340 536.1120
ENERGY: 900000 0.0000 0.0000 0.0000 0.0000 -11051.4097 1559.6589 0.0000 0.0000 1563.8052 -7927.9456 271.5468 -9491.7508 -7927.5903 269.9139 88.6874 163.6346 29501.6964 4.1906 4.1194
TCL: Running 1000000 steps at 300 kelvin.
TCL: Setting parameter langevinTemp to 300
TCL: Running for 1000000 steps
ETITLE: TS BOND ANGLE DIHED IMPRP ELECT VDW BOUNDARY MISC KINETIC TOTAL TEMP POTENTIAL TOTAL3 TEMPAVG PRESSURE GPRESSURE VOLUME PRESSAVG GPRESSAVG
ENERGY: 900000 0.0000 0.0000 0.0000 0.0000 -11051.4097 1559.6589 0.0000 0.0000 1563.0324 -7928.7185 271.4126 -9491.7508 -7926.5409 271.4126 85.5355 162.8616 29501.6964 85.5355 162.8616
ENERGY: 1100000 0.0000 0.0000 0.0000 0.0000 -10468.4207 1408.8021 0.0000 0.0000 1667.6100 -7392.0086 289.5720 -9059.6186 -7388.3016 300.2638 22.4897 112.9634 30052.7758 3.0363 2.9780
ENERGY: 1300000 0.0000 0.0000 0.0000 0.0000 -10563.0581 1433.4708 0.0000 0.0000 1761.5368 -7368.0505 305.8819 -9129.5873 -7363.3739 300.1762 99.0005 169.8606 30105.7172 2.3138 2.4147
ENERGY: 1500000 0.0000 0.0000 0.0000 0.0000 -10557.2205 1455.1094 0.0000 0.0000 1780.2958 -7321.8153 309.1393 -9102.1111 -7316.6210 300.5413 446.3267 474.8395 30173.4953 3.0663 3.0404
ENERGY: 1700000 0.0000 0.0000 0.0000 0.0000 -10501.7988 1388.8017 0.0000 0.0000 1689.6577 -7423.3393 293.4004 -9112.9970 -7419.0490 299.7671 -363.9971 -299.8703 30479.5261 3.2184 3.2865
ENERGY: 1900000 0.0000 0.0000 0.0000 0.0000 -10527.1409 1487.3245 0.0000 0.0000 1774.1905 -7265.6259 308.0791 -9039.8164 -7261.9765 300.3808 695.1128 833.7471 29863.8505 4.0479 3.9590
TCL: Exiting due to exit command.
