Info: SIMULATION PARAMETERS:
Info: TIMESTEP               2
Info: NUMBER OF STEPS        0
Info: STEPS PER CYCLE        10
Info: PERIODIC CELL BASIS 1  36.592 0 0
Info: PERIODIC CELL BASIS 2  0 35.267 0
Info: PERIODIC CELL BASIS 3  0 0 34.471
Info: PERIODIC CELL CENTER   0 0 0
Info: WRAPPING WATERS AROUND PERIODIC BOUNDARIES ON OUTPUT.
Info: WRAPPING ALL CLUSTERS AROUND PERIODIC BOUNDARIES ON OUTPUT.
Info: FIRST LDB TIMESTEP     50
Info: LAST LDB TIMESTEP     -1
Info: HOM BACKGROUND SCALING 1
Info: PME BACKGROUND SCALING 1
Info: MIN ATOMS PER PATCH    40
Info: EMPTY PATCH LOAD       40 ATOMS
Info: INITIAL TEMPERATURE    300
Info: CENTER OF MASS MOVING INITIALLY? NO
Info: DIELECTRIC             1
Info: EXCLUDE                SCALED ONE-FOUR
Info: 1-4 ELECTROSTATICS SCALED BY 0.833333
Info: MODIFIED 1-4 VDW PARAMETERS WILL BE USED
Info: DCD FILENAME           mobley_6632459_equil.dcd
Info: DCD FREQUENCY          100000
Info: DCD FIRST STEP         100000
Info: DCD FILE WILL CONTAIN UNIT CELL DATA
Info: XST FILENAME           mobley_6632459_equil.xst
Info: XST FREQUENCY          100000
Info: NO VELOCITY DCD OUTPUT
Info: NO FORCE DCD OUTPUT
Info: OUTPUT FILENAME        mobley_6632459_equil
Info: BINARY OUTPUT FILES WILL BE USED
Info: RESTART FILENAME       mobley_6632459_equil.restart
Info: RESTART FREQUENCY      100000
Info: BINARY RESTART FILES WILL BE USED
Info: CUTOFF                 9
Info: PAIRLIST DISTANCE      11
Info: PAIRLIST SHRINK RATE   0.01
Info: PAIRLIST GROW RATE     0.01
Info: PAIRLIST TRIGGER       0.3
Info: PAIRLISTS PER CYCLE    2
Info: PAIRLISTS ENABLED
Info: MARGIN                 8
Info: HYDROGEN GROUP CUTOFF  2.5
Info: PATCH DIMENSION        21.5
Info: ENERGY OUTPUT STEPS    100000
Info: ENERGY EVALUATION STEPS    100000
Info: OUTPUT ENERGY PRECISION 4
Info: CROSSTERM ENERGY INCLUDED IN DIHEDRAL
Info: TIMING OUTPUT STEPS    1000000
Info: PRESSURE OUTPUT STEPS  100000
Info: FIXED ATOMS ACTIVE
Info: LANGEVIN DYNAMICS ACTIVE
Info: LANGEVIN TEMPERATURE   30
Info: LANGEVIN USING BBK INTEGRATOR
Info: LANGEVIN DAMPING COEFFICIENT IS 1 INVERSE PS
Info: LANGEVIN DYNAMICS APPLIED TO HYDROGENS
Info: LANGEVIN PISTON PRESSURE CONTROL ACTIVE
Info:        TARGET PRESSURE IS 1.01325 BAR
Info:     OSCILLATION PERIOD IS 50 FS
Info:             DECAY TIME IS 25 FS
Info:     PISTON TEMPERATURE IS 300 K
Info:       PRESSURE CONTROL IS GROUP-BASED
Info:    INITIAL STRAIN RATE IS 0 0 0
Info:       CELL FLUCTUATION IS ISOTROPIC
Info: PARTICLE MESH EWALD (PME) ACTIVE
Info: PME TOLERANCE               1e-06
Info: PME EWALD COEFFICIENT       0.348832
Info: PME INTERPOLATION ORDER     4
Info: PME GRID DIMENSIONS         40 36 36
Info: PME MAXIMUM GRID SPACING    1
Info: FULL ELECTROSTATIC EVALUATION FREQUENCY      2
Info: USING VERLET I (r-RESPA) MTS SCHEME.
Info: C1 SPLITTING OF LONG RANGE ELECTROSTATICS
Info: PLACING ATOMS IN PATCHES BY HYDROGEN GROUPS
Info: RIGID BONDS TO HYDROGEN : ALL
Info:         ERROR TOLERANCE : 1e-08
Info:          MAX ITERATIONS : 100
Info: RIGID WATER USING SETTLE ALGORITHM
Info: RANDOM NUMBER SEED     1743900657
Info: USE HYDROGEN BONDS?    NO
Info: Using AMBER format force field!
Info: AMBER PARM FILE        mobley_6632459.prmtop
Info: COORDINATE PDB         mobley_6632459.pdb
Info: Exclusions will be read from PARM file!
Info: SCNB (VDW SCALING)     2
Info: USING ARITHMETIC MEAN TO COMBINE L-J SIGMA PARAMETERS
Info: BINARY COORDINATES     mobley_6632459_min.coor
Info: SUMMARY OF PARAMETERS:
Info: 7 BONDS
Info: 7 ANGLES
Info: 7 DIHEDRAL
Info: 0 IMPROPER
Info: 0 CROSSTERM
Info: 0 VDW
Info: 28 VDW_PAIRS
Info: 0 NBTHOLE_PAIRS
Info: STRUCTURE SUMMARY:
Info: 2980 ATOMS
Info: 2979 BONDS
Info: 15 ANGLES
Info: 20 DIHEDRALS
Info: 0 IMPROPERS
Info: 0 CROSSTERMS
Info: 3009 EXCLUSIONS
Info: 10 FIXED ATOMS
Info: 2976 RIGID BONDS
Info: 6 RIGID BONDS BETWEEN FIXED ATOMS
Info: 5940 DEGREES OF FREEDOM
Info: 994 HYDROGEN GROUPS
Info: 4 ATOMS IN LARGEST HYDROGEN GROUP
Info: 994 MIGRATION GROUPS
Info: 4 ATOMS IN LARGEST MIGRATION GROUP
Info: 4 HYDROGEN GROUPS WITH ALL ATOMS FIXED
Info: TOTAL MASS = 17893.9 amu
Info: TOTAL CHARGE = 9.99989e-05 e
Info: MASS DENSITY = 0.667969 g/cm^3
Info: ATOM DENSITY = 0.0669897 atoms/A^3
Info: ADDED 0 IMPLICIT EXCLUSIONS
Info: NONBONDED TABLE R-SQUARED SPACING: 0.0625
Info: NONBONDED TABLE SIZE: 705 POINTS
Info: REMOVING COM VELOCITY 0.0865602 -0.045177 0.0603018
TCL: Running for 100000 steps
ETITLE: TS BOND ANGLE DIHED IMPRP ELECT VDW BOUNDARY MISC KINETIC TOTAL TEMP POTENTIAL TOTAL3 TEMPAVG PRESSURE GPRESSURE VOLUME PRESSAVG GPRESSAVG
ENERGY: 0 0.0000 0.0000 0.0000 0.0000 -13817.7439 2411.6573 0.0000 0.0000 1754.3705 -9651.7161 297.2523 -11406.0866 -9651.3709 297.2523 329.5717 359.6339 44484.4830 329.5717 359.6339
ENERGY: 100000 0.0000 0.0000 0.0000 0.0000 -14448.9291 2535.5809 0.0000 0.0000 175.6203 -11737.7279 29.7563 -11913.3482 -11737.4391 30.9074 297.4671 342.5301 29083.3121 5.1488 5.0906
TCL: Running 100000 steps at 60 kelvin.
TCL: Setting parameter langevinTemp to 60
TCL: Running for 100000 steps
ETITLE: TS BOND ANGLE DIHED IMPRP ELECT VDW BOUNDARY MISC KINETIC TOTAL TEMP POTENTIAL TOTAL3 TEMPAVG PRESSURE GPRESSURE VOLUME PRESSAVG GPRESSAVG
ENERGY: 100000 0.0000 0.0000 0.0000 0.0000 -14448.9291 2535.5809 0.0000 0.0000 175.5282 -11737.8200 29.7407 -11913.3482 -11737.4168 29.7407 290.0072 342.3056 29083.3121 290.0072 342.3056
ENERGY: 200000 0.0000 0.0000 0.0000 0.0000 -14273.1562 2378.0582 0.0000 0.0000 343.3112 -11551.7868 58.1690 -11895.0980 -11551.2915 59.9225 -697.1899 -644.9006 28650.7042 4.1470 4.0882
TCL: Running 100000 steps at 90 kelvin.
TCL: Setting parameter langevinTemp to 90
TCL: Running for 100000 steps
ETITLE: TS BOND ANGLE DIHED IMPRP ELECT VDW BOUNDARY MISC KINETIC TOTAL TEMP POTENTIAL TOTAL3 TEMPAVG PRESSURE GPRESSURE VOLUME PRESSAVG GPRESSAVG
ENERGY: 200000 0.0000 0.0000 0.0000 0.0000 -14273.1562 2378.0582 0.0000 0.0000 343.1323 -11551.9656 58.1387 -11895.0980 -11551.3082 58.1387 -713.7222 -645.1902 28650.7042 -713.7222 -645.1902
ENERGY: 300000 0.0000 0.0000 0.0000 0.0000 -14301.0221 2510.4312 0.0000 0.0000 525.1635 -11265.4274 88.9812 -11790.5909 -11264.6610 90.0458 657.5192 714.1605 28548.6006 4.0439 4.0711
TCL: Running 100000 steps at 120 kelvin.
TCL: Setting parameter langevinTemp to 120
TCL: Running for 100000 steps
ETITLE: TS BOND ANGLE DIHED IMPRP ELECT VDW BOUNDARY MISC KINETIC TOTAL TEMP POTENTIAL TOTAL3 TEMPAVG PRESSURE GPRESSURE VOLUME PRESSAVG GPRESSAVG
ENERGY: 300000 0.0000 0.0000 0.0000 0.0000 -14301.0221 2510.4312 0.0000 0.0000 524.9002 -11265.6906 88.9366 -11790.5909 -11264.6765 88.9366 651.8334 713.6665 28548.6006 651.8334 713.6665
ENERGY: 400000 0.0000 0.0000 0.0000 0.0000 -14134.7059 2496.7184 0.0000 0.0000 713.4243 -10924.5632 120.8793 -11637.9875 -10922.7624 119.8187 1303.4523 1331.5137 28488.4115 3.8245 3.7561
TCL: Running 100000 steps at 150 kelvin.
TCL: Setting parameter langevinTemp to 150
TCL: Running for 100000 steps
ETITLE: TS BOND ANGLE DIHED IMPRP ELECT VDW BOUNDARY MISC KINETIC TOTAL TEMP POTENTIAL TOTAL3 TEMPAVG PRESSURE GPRESSURE VOLUME PRESSAVG GPRESSAVG
ENERGY: 400000 0.0000 0.0000 0.0000 0.0000 -14134.7059 2496.7184 0.0000 0.0000 713.0599 -10924.9276 120.8175 -11637.9875 -10923.8721 120.8175 1288.9226 1330.8290 28488.4115 1288.9226 1330.8290
ENERGY: 500000 0.0000 0.0000 0.0000 0.0000 -13718.4425 2258.6271 0.0000 0.0000 886.6328 -10573.1826 150.2269 -11459.8154 -10569.9133 149.7896 -393.5542 -299.9541 29240.7879 3.3751 3.5271
TCL: Running 100000 steps at 180 kelvin.
TCL: Setting parameter langevinTemp to 180
TCL: Running for 100000 steps
ETITLE: TS BOND ANGLE DIHED IMPRP ELECT VDW BOUNDARY MISC KINETIC TOTAL TEMP POTENTIAL TOTAL3 TEMPAVG PRESSURE GPRESSURE VOLUME PRESSAVG GPRESSAVG
ENERGY: 500000 0.0000 0.0000 0.0000 0.0000 -13718.4425 2258.6271 0.0000 0.0000 886.1915 -10573.6239 150.1521 -11459.8154 -10571.7526 150.1521 -365.0580 -299.8894 29240.7879 -365.0580 -299.8894
ENERGY: 600000 0.0000 0.0000 0.0000 0.0000 -13241.9117 2090.9308 0.0000 0.0000 1028.9262 -10122.0547 174.3364 -11150.9809 -10120.7039 179.9075 -751.6223 -697.5432 29440.0854 2.9904 2.8915
TCL: Running 100000 steps at 210 kelvin.
TCL: Setting parameter langevinTemp to 210
TCL: Running for 100000 steps
ETITLE: TS BOND ANGLE DIHED IMPRP ELECT VDW BOUNDARY MISC KINETIC TOTAL TEMP POTENTIAL TOTAL3 TEMPAVG PRESSURE GPRESSURE VOLUME PRESSAVG GPRESSAVG
ENERGY: 600000 0.0000 0.0000 0.0000 0.0000 -13241.9117 2090.9308 0.0000 0.0000 1028.3889 -10122.5920 174.2454 -11150.9809 -10120.3261 174.2454 -764.3785 -699.6803 29440.0854 -764.3785 -699.6803
ENERGY: 700000 0.0000 0.0000 0.0000 0.0000 -12505.6629 1814.5382 0.0000 0.0000 1247.6334 -9443.4913 211.3932 -10691.1248 -9440.5064 210.3328 -996.2860 -906.2075 29312.0915 3.8749 3.9460
TCL: Running 100000 steps at 240 kelvin.
TCL: Setting parameter langevinTemp to 240
TCL: Running for 100000 steps
ETITLE: TS BOND ANGLE DIHED IMPRP ELECT VDW BOUNDARY MISC KINETIC TOTAL TEMP POTENTIAL TOTAL3 TEMPAVG PRESSURE GPRESSURE VOLUME PRESSAVG GPRESSAVG
ENERGY: 700000 0.0000 0.0000 0.0000 0.0000 -12505.6629 1814.5382 0.0000 0.0000 1247.0189 -9444.1058 211.2890 -10691.1248 -9441.8190 211.2890 -981.5615 -905.2209 29312.0915 -981.5615 -905.2209
ENERGY: 800000 0.0000 0.0000 0.0000 0.0000 -12075.6631 1805.2730 0.0000 0.0000 1425.9425 -8844.4476 241.6050 -10270.3901 -8841.6242 239.6634 292.6155 410.4606 29324.8952 5.5327 5.6034
TCL: Running 100000 steps at 270 kelvin.
TCL: Setting parameter langevinTemp to 270
TCL: Running for 100000 steps
ETITLE: TS BOND ANGLE DIHED IMPRP ELECT VDW BOUNDARY MISC KINETIC TOTAL TEMP POTENTIAL TOTAL3 TEMPAVG PRESSURE GPRESSURE VOLUME PRESSAVG GPRESSAVG
ENERGY: 800000 0.0000 0.0000 0.0000 0.0000 -12075.6631 1805.2730 0.0000 0.0000 1425.2079 -8845.1822 241.4805 -10270.3901 -8842.7104 241.4805 314.0013 411.2034 29324.8952 314.0013 411.2034
ENERGY: 900000 0.0000 0.0000 0.0000 0.0000 -11272.1657 1521.0682 0.0000 0.0000 1589.2503 -8161.8472 269.2751 -9751.0975 -8160.7010 269.3113 -544.4965 -520.7941 30454.9141 1.7630 1.8231
TCL: Running 1000000 steps at 300 kelvin.
TCL: Setting parameter langevinTemp to 300
TCL: Running for 1000000 steps
ETITLE: TS BOND ANGLE DIHED IMPRP ELECT VDW BOUNDARY MISC KINETIC TOTAL TEMP POTENTIAL TOTAL3 TEMPAVG PRESSURE GPRESSURE VOLUME PRESSAVG GPRESSAVG
ENERGY: 900000 0.0000 0.0000 0.0000 0.0000 -11272.1657 1521.0682 0.0000 0.0000 1588.4387 -8162.6588 269.1376 -9751.0975 -8160.1676 269.1376 -613.4439 -522.7839 30454.9141 -613.4439 -522.7839
ENERGY: 1100000 0.0000 0.0000 0.0000 0.0000 -10930.9275 1510.1634 0.0000 0.0000 1832.3272 -7588.4369 310.4609 -9420.7641 -7584.9893 300.3782 167.1379 278.1535 30935.6114 3.6547 3.6917
ENERGY: 1300000 0.0000 0.0000 0.0000 0.0000 -10743.1921 1310.4063 0.0000 0.0000 1746.6919 -7686.0938 295.9513 -9432.7858 -7683.0389 300.5143 -1200.6339 -1099.4574 30845.9527 3.2684 3.3444
ENERGY: 1500000 0.0000 0.0000 0.0000 0.0000 -10715.4705 1364.4902 0.0000 0.0000 1775.2468 -7575.7335 300.7895 -9350.9803 -7571.6007 300.4284 -648.9573 -569.5440 30871.3412 2.9053 2.9709
ENERGY: 1700000 0.0000 0.0000 0.0000 0.0000 -10824.5077 1413.3419 0.0000 0.0000 1774.3287 -7636.8372 300.6339 -9411.1658 -7632.9921 299.8950 -529.1364 -436.5541 31021.3764 2.2005 2.1977
ENERGY: 1900000 0.0000 0.0000 0.0000 0.0000 -10770.1168 1373.0369 0.0000 0.0000 1772.6378 -7624.4422 300.3474 -9397.0799 -7620.4557 299.6816 -672.7099 -545.9259 30871.8327 3.4630 3.4585
TCL: Exiting due to exit command.
