Info: SIMULATION PARAMETERS:
Info: TIMESTEP               2
Info: NUMBER OF STEPS        0
Info: STEPS PER CYCLE        10
Info: PERIODIC CELL BASIS 1  36.005 0 0
Info: PERIODIC CELL BASIS 2  0 35.779 0
Info: PERIODIC CELL BASIS 3  0 0 34.471
Info: PERIODIC CELL CENTER   0 0 0
Info: WRAPPING WATERS AROUND PERIODIC BOUNDARIES ON OUTPUT.
Info: WRAPPING ALL CLUSTERS AROUND PERIODIC BOUNDARIES ON OUTPUT.
Info: FIRST LDB TIMESTEP     50
Info: LAST LDB TIMESTEP     -1
Info: HOM BACKGROUND SCALING 1
Info: PME BACKGROUND SCALING 1
Info: MIN ATOMS PER PATCH    40
Info: EMPTY PATCH LOAD       40 ATOMS
Info: INITIAL TEMPERATURE    300
Info: CENTER OF MASS MOVING INITIALLY? NO
Info: DIELECTRIC             1
Info: EXCLUDE                SCALED ONE-FOUR
Info: 1-4 ELECTROSTATICS SCALED BY 0.833333
Info: MODIFIED 1-4 VDW PARAMETERS WILL BE USED
Info: DCD FILENAME           mobley_3395921_equil.dcd
Info: DCD FREQUENCY          100000
Info: DCD FIRST STEP         100000
Info: DCD FILE WILL CONTAIN UNIT CELL DATA
Info: XST FILENAME           mobley_3395921_equil.xst
Info: XST FREQUENCY          100000
Info: NO VELOCITY DCD OUTPUT
Info: NO FORCE DCD OUTPUT
Info: OUTPUT FILENAME        mobley_3395921_equil
Info: BINARY OUTPUT FILES WILL BE USED
Info: RESTART FILENAME       mobley_3395921_equil.restart
Info: RESTART FREQUENCY      100000
Info: BINARY RESTART FILES WILL BE USED
Info: CUTOFF                 9
Info: PAIRLIST DISTANCE      11
Info: PAIRLIST SHRINK RATE   0.01
Info: PAIRLIST GROW RATE     0.01
Info: PAIRLIST TRIGGER       0.3
Info: PAIRLISTS PER CYCLE    2
Info: PAIRLISTS ENABLED
Info: MARGIN                 8
Info: HYDROGEN GROUP CUTOFF  2.5
Info: PATCH DIMENSION        21.5
Info: ENERGY OUTPUT STEPS    100000
Info: ENERGY EVALUATION STEPS    100000
Info: OUTPUT ENERGY PRECISION 4
Info: CROSSTERM ENERGY INCLUDED IN DIHEDRAL
Info: TIMING OUTPUT STEPS    1000000
Info: PRESSURE OUTPUT STEPS  100000
Info: FIXED ATOMS ACTIVE
Info: LANGEVIN DYNAMICS ACTIVE
Info: LANGEVIN TEMPERATURE   30
Info: LANGEVIN USING BBK INTEGRATOR
Info: LANGEVIN DAMPING COEFFICIENT IS 1 INVERSE PS
Info: LANGEVIN DYNAMICS APPLIED TO HYDROGENS
Info: LANGEVIN PISTON PRESSURE CONTROL ACTIVE
Info:        TARGET PRESSURE IS 1.01325 BAR
Info:     OSCILLATION PERIOD IS 50 FS
Info:             DECAY TIME IS 25 FS
Info:     PISTON TEMPERATURE IS 300 K
Info:       PRESSURE CONTROL IS GROUP-BASED
Info:    INITIAL STRAIN RATE IS 0 0 0
Info:       CELL FLUCTUATION IS ISOTROPIC
Info: PARTICLE MESH EWALD (PME) ACTIVE
Info: PME TOLERANCE               1e-06
Info: PME EWALD COEFFICIENT       0.348832
Info: PME INTERPOLATION ORDER     4
Info: PME GRID DIMENSIONS         40 36 36
Info: PME MAXIMUM GRID SPACING    1
Info: FULL ELECTROSTATIC EVALUATION FREQUENCY      2
Info: USING VERLET I (r-RESPA) MTS SCHEME.
Info: C1 SPLITTING OF LONG RANGE ELECTROSTATICS
Info: PLACING ATOMS IN PATCHES BY HYDROGEN GROUPS
Info: RIGID BONDS TO HYDROGEN : ALL
Info:         ERROR TOLERANCE : 1e-08
Info:          MAX ITERATIONS : 100
Info: RIGID WATER USING SETTLE ALGORITHM
Info: RANDOM NUMBER SEED     1743739211
Info: USE HYDROGEN BONDS?    NO
Info: Using AMBER format force field!
Info: AMBER PARM FILE        mobley_3395921.prmtop
Info: COORDINATE PDB         mobley_3395921.pdb
Info: Exclusions will be read from PARM file!
Info: SCNB (VDW SCALING)     2
Info: USING ARITHMETIC MEAN TO COMBINE L-J SIGMA PARAMETERS
Info: BINARY COORDINATES     mobley_3395921_min.coor
Info: SUMMARY OF PARAMETERS:
Info: 6 BONDS
Info: 8 ANGLES
Info:   8 HARMONIC
Info:   0 COSINE-BASED
Info: 11 DIHEDRAL
Info: 0 IMPROPER
Info: 0 CROSSTERM
Info: 0 VDW
Info: 21 VDW_PAIRS
Info: 0 NBTHOLE_PAIRS
Info: STRUCTURE SUMMARY:
Info: 2920 ATOMS
Info: 2920 BONDS
Info: 31 ANGLES
Info: 52 DIHEDRALS
Info: 0 IMPROPERS
Info: 0 CROSSTERMS
Info: 2990 EXCLUSIONS
Info: 16 FIXED ATOMS
Info: 2914 RIGID BONDS
Info: 10 RIGID BONDS BETWEEN FIXED ATOMS
Info: 5808 DEGREES OF FREEDOM
Info: 974 HYDROGEN GROUPS
Info: 3 ATOMS IN LARGEST HYDROGEN GROUP
Info: 974 MIGRATION GROUPS
Info: 3 ATOMS IN LARGEST MIGRATION GROUP
Info: 6 HYDROGEN GROUPS WITH ALL ATOMS FIXED
Info: TOTAL MASS = 17525.6 amu
Info: TOTAL CHARGE = -0.000300013 e
Info: MASS DENSITY = 0.655372 g/cm^3
Info: ATOM DENSITY = 0.0657564 atoms/A^3
Info: ADDED 0 IMPLICIT EXCLUSIONS
Info: NONBONDED TABLE R-SQUARED SPACING: 0.0625
Info: NONBONDED TABLE SIZE: 705 POINTS
Info: REMOVING COM VELOCITY 0.151281 0.0927607 -0.121037
TCL: Running for 100000 steps
ETITLE: TS BOND ANGLE DIHED IMPRP ELECT VDW BOUNDARY MISC KINETIC TOTAL TEMP POTENTIAL TOTAL3 TEMPAVG PRESSURE GPRESSURE VOLUME PRESSAVG GPRESSAVG
ENERGY: 0 0.0000 0.0000 0.0000 0.0000 -13496.5513 2410.2798 0.0000 0.0000 1730.0066 -9356.2648 299.7861 -11086.2714 -9355.9205 299.7861 697.9175 730.6161 44406.3314 697.9175 730.6161
ENERGY: 100000 0.0000 0.0000 0.0000 0.0000 -14145.9928 2517.4106 0.0000 0.0000 175.2817 -11453.3006 30.3739 -11628.5823 -11452.9751 30.9539 738.7675 782.7028 28629.9835 3.2771 3.2788
TCL: Running 100000 steps at 60 kelvin.
TCL: Setting parameter langevinTemp to 60
TCL: Running for 100000 steps
ETITLE: TS BOND ANGLE DIHED IMPRP ELECT VDW BOUNDARY MISC KINETIC TOTAL TEMP POTENTIAL TOTAL3 TEMPAVG PRESSURE GPRESSURE VOLUME PRESSAVG GPRESSAVG
ENERGY: 100000 0.0000 0.0000 0.0000 0.0000 -14145.9928 2517.4106 0.0000 0.0000 175.1939 -11453.3884 30.3587 -11628.5823 -11453.0175 30.3587 725.9808 782.5557 28629.9835 725.9808 782.5557
ENERGY: 200000 0.0000 0.0000 0.0000 0.0000 -13911.3861 2352.6328 0.0000 0.0000 355.4154 -11203.3379 61.5886 -11558.7533 -11202.1028 60.0111 -589.5223 -577.8357 29144.9668 4.1893 4.1855
TCL: Running 100000 steps at 90 kelvin.
TCL: Setting parameter langevinTemp to 90
TCL: Running for 100000 steps
ETITLE: TS BOND ANGLE DIHED IMPRP ELECT VDW BOUNDARY MISC KINETIC TOTAL TEMP POTENTIAL TOTAL3 TEMPAVG PRESSURE GPRESSURE VOLUME PRESSAVG GPRESSAVG
ENERGY: 200000 0.0000 0.0000 0.0000 0.0000 -13911.3861 2352.6328 0.0000 0.0000 355.2490 -11203.5043 61.5597 -11558.7533 -11202.7392 61.5597 -629.5119 -577.7582 29144.9668 -629.5119 -577.7582
ENERGY: 300000 0.0000 0.0000 0.0000 0.0000 -13806.7767 2338.5401 0.0000 0.0000 527.0569 -10941.1796 91.3317 -11468.2366 -10939.2351 89.8966 -328.1162 -284.5261 28929.4822 3.6834 3.7369
TCL: Running 100000 steps at 120 kelvin.
TCL: Setting parameter langevinTemp to 120
TCL: Running for 100000 steps
ETITLE: TS BOND ANGLE DIHED IMPRP ELECT VDW BOUNDARY MISC KINETIC TOTAL TEMP POTENTIAL TOTAL3 TEMPAVG PRESSURE GPRESSURE VOLUME PRESSAVG GPRESSAVG
ENERGY: 300000 0.0000 0.0000 0.0000 0.0000 -13806.7767 2338.5401 0.0000 0.0000 526.7894 -10941.4472 91.2853 -11468.2366 -10940.2272 91.2853 -331.8260 -283.6996 28929.4822 -331.8260 -283.6996
ENERGY: 400000 0.0000 0.0000 0.0000 0.0000 -13555.4003 2191.3781 0.0000 0.0000 695.7341 -10668.2881 120.5611 -11364.0222 -10665.8837 120.0176 -1101.0126 -1033.0568 29056.3074 3.9256 3.8867
TCL: Running 100000 steps at 150 kelvin.
TCL: Setting parameter langevinTemp to 150
TCL: Running for 100000 steps
ETITLE: TS BOND ANGLE DIHED IMPRP ELECT VDW BOUNDARY MISC KINETIC TOTAL TEMP POTENTIAL TOTAL3 TEMPAVG PRESSURE GPRESSURE VOLUME PRESSAVG GPRESSAVG
ENERGY: 400000 0.0000 0.0000 0.0000 0.0000 -13555.4003 2191.3781 0.0000 0.0000 695.3988 -10668.6234 120.5030 -11364.0222 -10667.1828 120.5030 -1078.1735 -1032.6361 29056.3074 -1078.1735 -1032.6361
ENERGY: 500000 0.0000 0.0000 0.0000 0.0000 -13462.1141 2324.8373 0.0000 0.0000 834.3176 -10302.9592 144.5757 -11137.2768 -10300.6985 149.6912 776.5001 856.9709 28766.5739 3.8830 3.9703
TCL: Running 100000 steps at 180 kelvin.
TCL: Setting parameter langevinTemp to 180
TCL: Running for 100000 steps
ETITLE: TS BOND ANGLE DIHED IMPRP ELECT VDW BOUNDARY MISC KINETIC TOTAL TEMP POTENTIAL TOTAL3 TEMPAVG PRESSURE GPRESSURE VOLUME PRESSAVG GPRESSAVG
ENERGY: 500000 0.0000 0.0000 0.0000 0.0000 -13462.1141 2324.8373 0.0000 0.0000 833.8794 -10303.3975 144.4997 -11137.2768 -10302.0251 144.4997 799.3075 857.6738 28766.5739 799.3075 857.6738
ENERGY: 600000 0.0000 0.0000 0.0000 0.0000 -13113.6002 2202.2804 0.0000 0.0000 1070.2503 -9841.0695 185.4595 -10911.3198 -9837.9157 179.8923 813.3392 915.9500 28406.5092 4.2950 4.3594
TCL: Running 100000 steps at 210 kelvin.
TCL: Setting parameter langevinTemp to 210
TCL: Running for 100000 steps
ETITLE: TS BOND ANGLE DIHED IMPRP ELECT VDW BOUNDARY MISC KINETIC TOTAL TEMP POTENTIAL TOTAL3 TEMPAVG PRESSURE GPRESSURE VOLUME PRESSAVG GPRESSAVG
ENERGY: 600000 0.0000 0.0000 0.0000 0.0000 -13113.6002 2202.2804 0.0000 0.0000 1069.7528 -9841.5670 185.3733 -10911.3198 -9840.0531 185.3733 856.1673 916.5203 28406.5092 856.1673 916.5203
ENERGY: 700000 0.0000 0.0000 0.0000 0.0000 -12389.7455 1986.4368 0.0000 0.0000 1176.1149 -9227.1938 203.8044 -10403.3087 -9224.2150 210.3060 995.0174 1064.9453 28361.8868 2.8949 2.8645
TCL: Running 100000 steps at 240 kelvin.
TCL: Setting parameter langevinTemp to 240
TCL: Running for 100000 steps
ETITLE: TS BOND ANGLE DIHED IMPRP ELECT VDW BOUNDARY MISC KINETIC TOTAL TEMP POTENTIAL TOTAL3 TEMPAVG PRESSURE GPRESSURE VOLUME PRESSAVG GPRESSAVG
ENERGY: 700000 0.0000 0.0000 0.0000 0.0000 -12389.7455 1986.4368 0.0000 0.0000 1175.4691 -9227.8395 203.6925 -10403.3087 -9226.3699 203.6925 985.8552 1064.6411 28361.8868 985.8552 1064.6411
ENERGY: 800000 0.0000 0.0000 0.0000 0.0000 -11629.3885 1650.8347 0.0000 0.0000 1381.6717 -8596.8821 239.4245 -9978.5538 -8592.5889 239.6256 -488.0780 -365.7356 28822.3641 3.5701 3.5030
TCL: Running 100000 steps at 270 kelvin.
TCL: Setting parameter langevinTemp to 270
TCL: Running for 100000 steps
ETITLE: TS BOND ANGLE DIHED IMPRP ELECT VDW BOUNDARY MISC KINETIC TOTAL TEMP POTENTIAL TOTAL3 TEMPAVG PRESSURE GPRESSURE VOLUME PRESSAVG GPRESSAVG
ENERGY: 800000 0.0000 0.0000 0.0000 0.0000 -11629.3885 1650.8347 0.0000 0.0000 1380.9971 -8597.5567 239.3076 -9978.5538 -8595.7207 239.3076 -447.4394 -364.0714 28822.3641 -447.4394 -364.0714
ENERGY: 900000 0.0000 0.0000 0.0000 0.0000 -11120.3295 1557.4453 0.0000 0.0000 1559.0828 -8003.8014 270.1674 -9562.8842 -7999.5857 269.5859 232.1270 236.5951 29154.1222 3.7086 3.6738
TCL: Running 1000000 steps at 300 kelvin.
TCL: Setting parameter langevinTemp to 300
TCL: Running for 1000000 steps
ETITLE: TS BOND ANGLE DIHED IMPRP ELECT VDW BOUNDARY MISC KINETIC TOTAL TEMP POTENTIAL TOTAL3 TEMPAVG PRESSURE GPRESSURE VOLUME PRESSAVG GPRESSAVG
ENERGY: 900000 0.0000 0.0000 0.0000 0.0000 -11120.3295 1557.4453 0.0000 0.0000 1558.2719 -8004.6123 270.0269 -9562.8842 -8002.4784 270.0269 142.0198 236.0505 29154.1222 142.0198 236.0505
ENERGY: 1100000 0.0000 0.0000 0.0000 0.0000 -10672.1077 1454.5422 0.0000 0.0000 1675.3892 -7542.1763 290.3217 -9217.5655 -7538.0829 299.6454 141.9338 183.1840 29825.6564 2.7043 2.8740
ENERGY: 1300000 0.0000 0.0000 0.0000 0.0000 -10614.5082 1398.3076 0.0000 0.0000 1727.6453 -7488.5552 299.3770 -9216.2006 -7486.0527 300.0861 -313.7406 -210.9603 30082.0764 1.9650 1.9193
ENERGY: 1500000 0.0000 0.0000 0.0000 0.0000 -10568.6591 1404.6975 0.0000 0.0000 1680.7539 -7483.2077 291.2513 -9163.9616 -7479.2772 301.1977 -262.6143 -220.1102 30372.2804 2.1104 2.2929
ENERGY: 1700000 0.0000 0.0000 0.0000 0.0000 -10566.8505 1372.4533 0.0000 0.0000 1740.1747 -7454.2224 301.5481 -9194.3972 -7450.3948 300.3351 -362.1337 -325.7959 30073.1703 5.1108 5.2229
ENERGY: 1900000 0.0000 0.0000 0.0000 0.0000 -10615.7618 1422.5718 0.0000 0.0000 1744.9342 -7448.2558 302.3729 -9193.1900 -7443.9279 299.8721 -27.1065 10.4430 30121.1524 2.7593 2.5101
TCL: Exiting due to exit command.
