Info: SIMULATION PARAMETERS:
Info: TIMESTEP               2
Info: NUMBER OF STEPS        0
Info: STEPS PER CYCLE        10
Info: PERIODIC CELL BASIS 1  37.435 0 0
Info: PERIODIC CELL BASIS 2  0 35.411 0
Info: PERIODIC CELL BASIS 3  0 0 31.561
Info: PERIODIC CELL CENTER   0 0 0
Info: WRAPPING WATERS AROUND PERIODIC BOUNDARIES ON OUTPUT.
Info: WRAPPING ALL CLUSTERS AROUND PERIODIC BOUNDARIES ON OUTPUT.
Info: FIRST LDB TIMESTEP     50
Info: LAST LDB TIMESTEP     -1
Info: HOM BACKGROUND SCALING 1
Info: PME BACKGROUND SCALING 1
Info: MIN ATOMS PER PATCH    40
Info: EMPTY PATCH LOAD       40 ATOMS
Info: INITIAL TEMPERATURE    300
Info: CENTER OF MASS MOVING INITIALLY? NO
Info: DIELECTRIC             1
Info: EXCLUDE                SCALED ONE-FOUR
Info: 1-4 ELECTROSTATICS SCALED BY 0.833333
Info: MODIFIED 1-4 VDW PARAMETERS WILL BE USED
Info: DCD FILENAME           mobley_1733799_equil.dcd
Info: DCD FREQUENCY          100000
Info: DCD FIRST STEP         100000
Info: DCD FILE WILL CONTAIN UNIT CELL DATA
Info: XST FILENAME           mobley_1733799_equil.xst
Info: XST FREQUENCY          100000
Info: NO VELOCITY DCD OUTPUT
Info: NO FORCE DCD OUTPUT
Info: OUTPUT FILENAME        mobley_1733799_equil
Info: BINARY OUTPUT FILES WILL BE USED
Info: RESTART FILENAME       mobley_1733799_equil.restart
Info: RESTART FREQUENCY      100000
Info: BINARY RESTART FILES WILL BE USED
Info: CUTOFF                 9
Info: PAIRLIST DISTANCE      11
Info: PAIRLIST SHRINK RATE   0.01
Info: PAIRLIST GROW RATE     0.01
Info: PAIRLIST TRIGGER       0.3
Info: PAIRLISTS PER CYCLE    2
Info: PAIRLISTS ENABLED
Info: MARGIN                 8
Info: HYDROGEN GROUP CUTOFF  2.5
Info: PATCH DIMENSION        21.5
Info: ENERGY OUTPUT STEPS    100000
Info: ENERGY EVALUATION STEPS    100000
Info: OUTPUT ENERGY PRECISION 4
Info: CROSSTERM ENERGY INCLUDED IN DIHEDRAL
Info: TIMING OUTPUT STEPS    1000000
Info: PRESSURE OUTPUT STEPS  100000
Info: FIXED ATOMS ACTIVE
Info: LANGEVIN DYNAMICS ACTIVE
Info: LANGEVIN TEMPERATURE   30
Info: LANGEVIN USING BBK INTEGRATOR
Info: LANGEVIN DAMPING COEFFICIENT IS 1 INVERSE PS
Info: LANGEVIN DYNAMICS APPLIED TO HYDROGENS
Info: LANGEVIN PISTON PRESSURE CONTROL ACTIVE
Info:        TARGET PRESSURE IS 1.01325 BAR
Info:     OSCILLATION PERIOD IS 50 FS
Info:             DECAY TIME IS 25 FS
Info:     PISTON TEMPERATURE IS 300 K
Info:       PRESSURE CONTROL IS GROUP-BASED
Info:    INITIAL STRAIN RATE IS 0 0 0
Info:       CELL FLUCTUATION IS ISOTROPIC
Info: PARTICLE MESH EWALD (PME) ACTIVE
Info: PME TOLERANCE               1e-06
Info: PME EWALD COEFFICIENT       0.348832
Info: PME INTERPOLATION ORDER     4
Info: PME GRID DIMENSIONS         40 36 32
Info: PME MAXIMUM GRID SPACING    1
Info: FULL ELECTROSTATIC EVALUATION FREQUENCY      2
Info: USING VERLET I (r-RESPA) MTS SCHEME.
Info: C1 SPLITTING OF LONG RANGE ELECTROSTATICS
Info: PLACING ATOMS IN PATCHES BY HYDROGEN GROUPS
Info: RIGID BONDS TO HYDROGEN : ALL
Info:         ERROR TOLERANCE : 1e-08
Info:          MAX ITERATIONS : 100
Info: RIGID WATER USING SETTLE ALGORITHM
Info: RANDOM NUMBER SEED     1743729122
Info: USE HYDROGEN BONDS?    NO
Info: Using AMBER format force field!
Info: AMBER PARM FILE        mobley_1733799.prmtop
Info: COORDINATE PDB         mobley_1733799.pdb
Info: Exclusions will be read from PARM file!
Info: SCNB (VDW SCALING)     2
Info: USING ARITHMETIC MEAN TO COMBINE L-J SIGMA PARAMETERS
Info: BINARY COORDINATES     mobley_1733799_min.coor
Info: SUMMARY OF PARAMETERS:
Info: 7 BONDS
Info: 5 ANGLES
Info:   5 HARMONIC
Info:   0 COSINE-BASED
Info: 3 DIHEDRAL
Info: 0 IMPROPER
Info: 0 CROSSTERM
Info: 0 VDW
Info: 21 VDW_PAIRS
Info: 0 NBTHOLE_PAIRS
Info: STRUCTURE SUMMARY:
Info: 2911 ATOMS
Info: 2911 BONDS
Info: 19 ANGLES
Info: 32 DIHEDRALS
Info: 0 IMPROPERS
Info: 0 CROSSTERMS
Info: 2953 EXCLUSIONS
Info: 13 FIXED ATOMS
Info: 2903 RIGID BONDS
Info: 5 RIGID BONDS BETWEEN FIXED ATOMS
Info: 5796 DEGREES OF FREEDOM
Info: 974 HYDROGEN GROUPS
Info: 3 ATOMS IN LARGEST HYDROGEN GROUP
Info: 974 MIGRATION GROUPS
Info: 3 ATOMS IN LARGEST MIGRATION GROUP
Info: 8 HYDROGEN GROUPS WITH ALL ATOMS FIXED
Info: TOTAL MASS = 17576.5 amu
Info: TOTAL CHARGE = 0.000100002 e
Info: MASS DENSITY = 0.697628 g/cm^3
Info: ATOM DENSITY = 0.0695786 atoms/A^3
Info: ADDED 0 IMPLICIT EXCLUSIONS
Info: NONBONDED TABLE R-SQUARED SPACING: 0.0625
Info: NONBONDED TABLE SIZE: 705 POINTS
Info: REMOVING COM VELOCITY 0.0931391 -0.124683 0.0233749
TCL: Running for 100000 steps
ETITLE: TS BOND ANGLE DIHED IMPRP ELECT VDW BOUNDARY MISC KINETIC TOTAL TEMP POTENTIAL TOTAL3 TEMPAVG PRESSURE GPRESSURE VOLUME PRESSAVG GPRESSAVG
ENERGY: 0 0.0000 0.0000 0.0000 0.0000 -13516.3074 2344.9122 0.0000 0.0000 1679.7729 -9491.6223 291.6840 -11171.3952 -9491.2888 291.6840 192.0742 227.8523 41837.6020 192.0742 227.8523
ENERGY: 100000 0.0000 0.0000 0.0000 0.0000 -14145.7377 2521.2012 0.0000 0.0000 170.2743 -11454.2622 29.5673 -11624.5365 -11453.8990 30.8109 578.2216 637.0181 28291.3597 4.2862 4.3012
TCL: Running 100000 steps at 60 kelvin.
TCL: Setting parameter langevinTemp to 60
TCL: Running for 100000 steps
ETITLE: TS BOND ANGLE DIHED IMPRP ELECT VDW BOUNDARY MISC KINETIC TOTAL TEMP POTENTIAL TOTAL3 TEMPAVG PRESSURE GPRESSURE VOLUME PRESSAVG GPRESSAVG
ENERGY: 100000 0.0000 0.0000 0.0000 0.0000 -14145.7377 2521.2012 0.0000 0.0000 170.1866 -11454.3499 29.5520 -11624.5365 -11453.9818 29.5520 579.3565 637.0719 28291.3597 579.3565 637.0719
ENERGY: 200000 0.0000 0.0000 0.0000 0.0000 -13884.0834 2283.8443 0.0000 0.0000 337.2913 -11262.9478 58.5689 -11600.2391 -11261.5889 60.0261 -1230.4825 -1176.3676 28307.8154 5.1187 5.1569
TCL: Running 100000 steps at 90 kelvin.
TCL: Setting parameter langevinTemp to 90
TCL: Running for 100000 steps
ETITLE: TS BOND ANGLE DIHED IMPRP ELECT VDW BOUNDARY MISC KINETIC TOTAL TEMP POTENTIAL TOTAL3 TEMPAVG PRESSURE GPRESSURE VOLUME PRESSAVG GPRESSAVG
ENERGY: 200000 0.0000 0.0000 0.0000 0.0000 -13884.0834 2283.8443 0.0000 0.0000 337.1206 -11263.1186 58.5393 -11600.2391 -11262.3905 58.5393 -1226.5866 -1176.2031 28307.8154 -1226.5866 -1176.2031
ENERGY: 300000 0.0000 0.0000 0.0000 0.0000 -13763.0735 2312.3995 0.0000 0.0000 512.3666 -10938.3074 88.9698 -11450.6740 -10936.7030 90.0158 -227.0597 -191.4838 28209.1235 4.8105 4.7622
TCL: Running 100000 steps at 120 kelvin.
TCL: Setting parameter langevinTemp to 120
TCL: Running for 100000 steps
ETITLE: TS BOND ANGLE DIHED IMPRP ELECT VDW BOUNDARY MISC KINETIC TOTAL TEMP POTENTIAL TOTAL3 TEMPAVG PRESSURE GPRESSURE VOLUME PRESSAVG GPRESSAVG
ENERGY: 300000 0.0000 0.0000 0.0000 0.0000 -13763.0735 2312.3995 0.0000 0.0000 512.1044 -10938.5696 88.9243 -11450.6740 -10937.5615 88.9243 -240.9101 -191.1802 28209.1235 -240.9101 -191.1802
ENERGY: 400000 0.0000 0.0000 0.0000 0.0000 -13684.7870 2337.3570 0.0000 0.0000 680.8414 -10666.5886 118.2246 -11347.4300 -10663.7736 119.6721 585.8972 642.1029 27837.0270 4.6213 4.5568
TCL: Running 100000 steps at 150 kelvin.
TCL: Setting parameter langevinTemp to 150
TCL: Running for 100000 steps
ETITLE: TS BOND ANGLE DIHED IMPRP ELECT VDW BOUNDARY MISC KINETIC TOTAL TEMP POTENTIAL TOTAL3 TEMPAVG PRESSURE GPRESSURE VOLUME PRESSAVG GPRESSAVG
ENERGY: 400000 0.0000 0.0000 0.0000 0.0000 -13684.7870 2337.3570 0.0000 0.0000 680.5053 -10666.9247 118.1663 -11347.4300 -10665.1306 118.1663 588.0203 642.3358 27837.0270 588.0203 642.3358
ENERGY: 500000 0.0000 0.0000 0.0000 0.0000 -13253.8129 2121.8130 0.0000 0.0000 846.7913 -10285.2086 147.0410 -11131.9999 -10283.9567 150.0268 -671.2447 -626.8884 28572.7660 5.0112 5.0141
TCL: Running 100000 steps at 180 kelvin.
TCL: Setting parameter langevinTemp to 180
TCL: Running for 100000 steps
ETITLE: TS BOND ANGLE DIHED IMPRP ELECT VDW BOUNDARY MISC KINETIC TOTAL TEMP POTENTIAL TOTAL3 TEMPAVG PRESSURE GPRESSURE VOLUME PRESSAVG GPRESSAVG
ENERGY: 500000 0.0000 0.0000 0.0000 0.0000 -13253.8129 2121.8130 0.0000 0.0000 846.3522 -10285.6477 146.9647 -11131.9999 -10283.8657 146.9647 -676.7432 -628.0256 28572.7660 -676.7432 -628.0256
ENERGY: 600000 0.0000 0.0000 0.0000 0.0000 -12982.8079 2088.0651 0.0000 0.0000 1037.6712 -9857.0716 180.1863 -10894.7428 -9855.6928 179.6270 -327.4374 -289.9459 28944.1862 3.5054 3.4276
TCL: Running 100000 steps at 210 kelvin.
TCL: Setting parameter langevinTemp to 210
TCL: Running for 100000 steps
ETITLE: TS BOND ANGLE DIHED IMPRP ELECT VDW BOUNDARY MISC KINETIC TOTAL TEMP POTENTIAL TOTAL3 TEMPAVG PRESSURE GPRESSURE VOLUME PRESSAVG GPRESSAVG
ENERGY: 600000 0.0000 0.0000 0.0000 0.0000 -12982.8079 2088.0651 0.0000 0.0000 1037.1588 -9857.5839 180.0973 -10894.7428 -9856.1129 180.0973 -342.0548 -291.2487 28944.1862 -342.0548 -291.2487
ENERGY: 700000 0.0000 0.0000 0.0000 0.0000 -12247.5231 1812.7690 0.0000 0.0000 1248.6433 -9186.1107 216.8205 -10434.7540 -9183.2374 209.7507 -497.0972 -400.5713 28523.5196 2.9790 2.8177
TCL: Running 100000 steps at 240 kelvin.
TCL: Setting parameter langevinTemp to 240
TCL: Running for 100000 steps
ETITLE: TS BOND ANGLE DIHED IMPRP ELECT VDW BOUNDARY MISC KINETIC TOTAL TEMP POTENTIAL TOTAL3 TEMPAVG PRESSURE GPRESSURE VOLUME PRESSAVG GPRESSAVG
ENERGY: 700000 0.0000 0.0000 0.0000 0.0000 -12247.5231 1812.7690 0.0000 0.0000 1248.0402 -9186.7138 216.7158 -10434.7540 -9184.2817 216.7158 -483.2557 -399.4508 28523.5196 -483.2557 -399.4508
ENERGY: 800000 0.0000 0.0000 0.0000 0.0000 -11673.6270 1653.7247 0.0000 0.0000 1371.1849 -8648.7175 238.0992 -10019.9023 -8646.3982 239.8831 -280.9486 -196.3243 28758.8325 3.4042 3.2993
TCL: Running 100000 steps at 270 kelvin.
TCL: Setting parameter langevinTemp to 270
TCL: Running for 100000 steps
ETITLE: TS BOND ANGLE DIHED IMPRP ELECT VDW BOUNDARY MISC KINETIC TOTAL TEMP POTENTIAL TOTAL3 TEMPAVG PRESSURE GPRESSURE VOLUME PRESSAVG GPRESSAVG
ENERGY: 800000 0.0000 0.0000 0.0000 0.0000 -11673.6270 1653.7247 0.0000 0.0000 1370.4631 -8649.4393 237.9739 -10019.9023 -8647.1804 237.9739 -271.4816 -195.6346 28758.8325 -271.4816 -195.6346
ENERGY: 900000 0.0000 0.0000 0.0000 0.0000 -11181.0821 1611.9494 0.0000 0.0000 1537.7291 -8031.4035 267.0188 -9569.1326 -8028.2112 269.5625 524.6876 607.7790 29150.1420 1.9711 1.9541
TCL: Running 1000000 steps at 300 kelvin.
TCL: Setting parameter langevinTemp to 300
TCL: Running for 1000000 steps
ETITLE: TS BOND ANGLE DIHED IMPRP ELECT VDW BOUNDARY MISC KINETIC TOTAL TEMP POTENTIAL TOTAL3 TEMPAVG PRESSURE GPRESSURE VOLUME PRESSAVG GPRESSAVG
ENERGY: 900000 0.0000 0.0000 0.0000 0.0000 -11181.0821 1611.9494 0.0000 0.0000 1536.8978 -8032.2348 266.8745 -9569.1326 -8029.9056 266.8745 518.3714 608.6913 29150.1420 518.3714 608.6913
ENERGY: 1100000 0.0000 0.0000 0.0000 0.0000 -10644.5170 1403.2190 0.0000 0.0000 1690.6465 -7550.6515 293.5721 -9241.2980 -7545.9987 299.7880 -116.3464 -25.9284 29810.5808 3.1796 3.0401
ENERGY: 1300000 0.0000 0.0000 0.0000 0.0000 -10466.4875 1352.5300 0.0000 0.0000 1694.3280 -7419.6295 294.2114 -9113.9575 -7414.9123 300.1895 -502.7138 -404.4838 30319.0835 2.7036 2.8869
ENERGY: 1500000 0.0000 0.0000 0.0000 0.0000 -10553.9478 1347.3607 0.0000 0.0000 1720.1274 -7486.4597 298.6913 -9206.5871 -7485.5410 300.1086 -638.2506 -578.6443 30002.9274 3.9293 3.9304
ENERGY: 1700000 0.0000 0.0000 0.0000 0.0000 -10658.2851 1459.2949 0.0000 0.0000 1711.2334 -7487.7568 297.1469 -9198.9902 -7485.6756 300.5891 292.6693 400.4514 29975.0141 3.1434 2.8266
ENERGY: 1900000 0.0000 0.0000 0.0000 0.0000 -10405.5097 1299.3570 0.0000 0.0000 1740.7808 -7365.3719 302.2777 -9106.1527 -7361.2049 300.0131 -1033.7377 -866.1354 30476.9243 3.0837 2.9523
TCL: Exiting due to exit command.
