Info: SIMULATION PARAMETERS:
Info: TIMESTEP               2
Info: NUMBER OF STEPS        0
Info: STEPS PER CYCLE        10
Info: PERIODIC CELL BASIS 1  37.133 0 0
Info: PERIODIC CELL BASIS 2  0 37.796 0
Info: PERIODIC CELL BASIS 3  0 0 31.349
Info: PERIODIC CELL CENTER   0 0 0
Info: WRAPPING WATERS AROUND PERIODIC BOUNDARIES ON OUTPUT.
Info: WRAPPING ALL CLUSTERS AROUND PERIODIC BOUNDARIES ON OUTPUT.
Info: FIRST LDB TIMESTEP     50
Info: LAST LDB TIMESTEP     -1
Info: HOM BACKGROUND SCALING 1
Info: PME BACKGROUND SCALING 1
Info: MIN ATOMS PER PATCH    40
Info: EMPTY PATCH LOAD       40 ATOMS
Info: INITIAL TEMPERATURE    300
Info: CENTER OF MASS MOVING INITIALLY? NO
Info: DIELECTRIC             1
Info: EXCLUDE                SCALED ONE-FOUR
Info: 1-4 ELECTROSTATICS SCALED BY 0.833333
Info: MODIFIED 1-4 VDW PARAMETERS WILL BE USED
Info: DCD FILENAME           mobley_9740891_equil.dcd
Info: DCD FREQUENCY          100000
Info: DCD FIRST STEP         100000
Info: DCD FILE WILL CONTAIN UNIT CELL DATA
Info: XST FILENAME           mobley_9740891_equil.xst
Info: XST FREQUENCY          100000
Info: NO VELOCITY DCD OUTPUT
Info: NO FORCE DCD OUTPUT
Info: OUTPUT FILENAME        mobley_9740891_equil
Info: BINARY OUTPUT FILES WILL BE USED
Info: RESTART FILENAME       mobley_9740891_equil.restart
Info: RESTART FREQUENCY      100000
Info: BINARY RESTART FILES WILL BE USED
Info: CUTOFF                 9
Info: PAIRLIST DISTANCE      11
Info: PAIRLIST SHRINK RATE   0.01
Info: PAIRLIST GROW RATE     0.01
Info: PAIRLIST TRIGGER       0.3
Info: PAIRLISTS PER CYCLE    2
Info: PAIRLISTS ENABLED
Info: MARGIN                 8
Info: HYDROGEN GROUP CUTOFF  2.5
Info: PATCH DIMENSION        21.5
Info: ENERGY OUTPUT STEPS    100000
Info: ENERGY EVALUATION STEPS    100000
Info: OUTPUT ENERGY PRECISION 4
Info: CROSSTERM ENERGY INCLUDED IN DIHEDRAL
Info: TIMING OUTPUT STEPS    1000000
Info: PRESSURE OUTPUT STEPS  100000
Info: FIXED ATOMS ACTIVE
Info: LANGEVIN DYNAMICS ACTIVE
Info: LANGEVIN TEMPERATURE   30
Info: LANGEVIN USING BBK INTEGRATOR
Info: LANGEVIN DAMPING COEFFICIENT IS 1 INVERSE PS
Info: LANGEVIN DYNAMICS APPLIED TO HYDROGENS
Info: LANGEVIN PISTON PRESSURE CONTROL ACTIVE
Info:        TARGET PRESSURE IS 1.01325 BAR
Info:     OSCILLATION PERIOD IS 50 FS
Info:             DECAY TIME IS 25 FS
Info:     PISTON TEMPERATURE IS 300 K
Info:       PRESSURE CONTROL IS GROUP-BASED
Info:    INITIAL STRAIN RATE IS 0 0 0
Info:       CELL FLUCTUATION IS ISOTROPIC
Info: PARTICLE MESH EWALD (PME) ACTIVE
Info: PME TOLERANCE               1e-06
Info: PME EWALD COEFFICIENT       0.348832
Info: PME INTERPOLATION ORDER     4
Info: PME GRID DIMENSIONS         40 40 32
Info: PME MAXIMUM GRID SPACING    1
Info: FULL ELECTROSTATIC EVALUATION FREQUENCY      2
Info: USING VERLET I (r-RESPA) MTS SCHEME.
Info: C1 SPLITTING OF LONG RANGE ELECTROSTATICS
Info: PLACING ATOMS IN PATCHES BY HYDROGEN GROUPS
Info: RIGID BONDS TO HYDROGEN : ALL
Info:         ERROR TOLERANCE : 1e-08
Info:          MAX ITERATIONS : 100
Info: RIGID WATER USING SETTLE ALGORITHM
Info: RANDOM NUMBER SEED     1743730831
Info: USE HYDROGEN BONDS?    NO
Info: Using AMBER format force field!
Info: AMBER PARM FILE        mobley_9740891.prmtop
Info: COORDINATE PDB         mobley_9740891.pdb
Info: Exclusions will be read from PARM file!
Info: SCNB (VDW SCALING)     2
Info: USING ARITHMETIC MEAN TO COMBINE L-J SIGMA PARAMETERS
Info: BINARY COORDINATES     mobley_9740891_min.coor
Info: SUMMARY OF PARAMETERS:
Info: 7 BONDS
Info: 5 ANGLES
Info:   5 HARMONIC
Info:   0 COSINE-BASED
Info: 3 DIHEDRAL
Info: 0 IMPROPER
Info: 0 CROSSTERM
Info: 0 VDW
Info: 28 VDW_PAIRS
Info: 0 NBTHOLE_PAIRS
Info: STRUCTURE SUMMARY:
Info: 2950 ATOMS
Info: 2950 BONDS
Info: 19 ANGLES
Info: 32 DIHEDRALS
Info: 0 IMPROPERS
Info: 0 CROSSTERMS
Info: 2992 EXCLUSIONS
Info: 13 FIXED ATOMS
Info: 2940 RIGID BONDS
Info: 3 RIGID BONDS BETWEEN FIXED ATOMS
Info: 5874 DEGREES OF FREEDOM
Info: 989 HYDROGEN GROUPS
Info: 3 ATOMS IN LARGEST HYDROGEN GROUP
Info: 989 MIGRATION GROUPS
Info: 3 ATOMS IN LARGEST MIGRATION GROUP
Info: 10 HYDROGEN GROUPS WITH ALL ATOMS FIXED
Info: TOTAL MASS = 17809.7 amu
Info: TOTAL CHARGE = 9.99942e-05 e
Info: MASS DENSITY = 0.67218 g/cm^3
Info: ATOM DENSITY = 0.067049 atoms/A^3
Info: ADDED 0 IMPLICIT EXCLUSIONS
Info: NONBONDED TABLE R-SQUARED SPACING: 0.0625
Info: NONBONDED TABLE SIZE: 705 POINTS
Info: REMOVING COM VELOCITY -0.144121 -0.112577 0.159227
TCL: Running for 100000 steps
ETITLE: TS BOND ANGLE DIHED IMPRP ELECT VDW BOUNDARY MISC KINETIC TOTAL TEMP POTENTIAL TOTAL3 TEMPAVG PRESSURE GPRESSURE VOLUME PRESSAVG GPRESSAVG
ENERGY: 0 0.0000 0.0000 0.0000 0.0000 -13756.1961 2394.1698 0.0000 0.0000 1695.9056 -9666.1207 290.5749 -11362.0263 -9665.7903 290.5749 159.4216 185.3542 43997.6590 159.4216 185.3542
ENERGY: 100000 0.0000 0.0000 0.0000 0.0000 -14190.5080 2413.1847 0.0000 0.0000 171.8552 -11605.4680 29.4455 -11777.3233 -11605.0783 30.8089 -623.1157 -584.3688 29389.3083 4.4454 4.4071
TCL: Running 100000 steps at 60 kelvin.
TCL: Setting parameter langevinTemp to 60
TCL: Running for 100000 steps
ETITLE: TS BOND ANGLE DIHED IMPRP ELECT VDW BOUNDARY MISC KINETIC TOTAL TEMP POTENTIAL TOTAL3 TEMPAVG PRESSURE GPRESSURE VOLUME PRESSAVG GPRESSAVG
ENERGY: 100000 0.0000 0.0000 0.0000 0.0000 -14190.5080 2413.1847 0.0000 0.0000 171.7720 -11605.5513 29.4312 -11777.3233 -11605.1256 29.4312 -632.2399 -584.5049 29389.3083 -632.2399 -584.5049
ENERGY: 200000 0.0000 0.0000 0.0000 0.0000 -14101.1294 2418.8851 0.0000 0.0000 349.1236 -11333.1206 59.8185 -11682.2442 -11331.9735 59.9081 -94.9243 -52.5888 29129.2206 3.2451 3.3495
TCL: Running 100000 steps at 90 kelvin.
TCL: Setting parameter langevinTemp to 90
TCL: Running for 100000 steps
ETITLE: TS BOND ANGLE DIHED IMPRP ELECT VDW BOUNDARY MISC KINETIC TOTAL TEMP POTENTIAL TOTAL3 TEMPAVG PRESSURE GPRESSURE VOLUME PRESSAVG GPRESSAVG
ENERGY: 200000 0.0000 0.0000 0.0000 0.0000 -14101.1294 2418.8851 0.0000 0.0000 348.9536 -11333.2906 59.7894 -11682.2442 -11332.5487 59.7894 -94.1221 -52.3922 29129.2206 -94.1221 -52.3922
ENERGY: 300000 0.0000 0.0000 0.0000 0.0000 -13982.7676 2378.8078 0.0000 0.0000 511.0754 -11092.8844 87.5672 -11603.9598 -11091.8117 90.1246 -73.2145 -54.9885 28996.5802 6.0329 5.9223
TCL: Running 100000 steps at 120 kelvin.
TCL: Setting parameter langevinTemp to 120
TCL: Running for 100000 steps
ETITLE: TS BOND ANGLE DIHED IMPRP ELECT VDW BOUNDARY MISC KINETIC TOTAL TEMP POTENTIAL TOTAL3 TEMPAVG PRESSURE GPRESSURE VOLUME PRESSAVG GPRESSAVG
ENERGY: 300000 0.0000 0.0000 0.0000 0.0000 -13982.7676 2378.8078 0.0000 0.0000 510.8082 -11093.1516 87.5214 -11603.9598 -11091.8982 87.5214 -102.3588 -55.2458 28996.5802 -102.3588 -55.2458
ENERGY: 400000 0.0000 0.0000 0.0000 0.0000 -13715.8865 2254.0255 0.0000 0.0000 721.0127 -10740.8482 123.5377 -11461.8609 -10739.3659 120.0517 -659.1564 -649.9671 29272.4941 3.2797 3.3341
TCL: Running 100000 steps at 150 kelvin.
TCL: Setting parameter langevinTemp to 150
TCL: Running for 100000 steps
ETITLE: TS BOND ANGLE DIHED IMPRP ELECT VDW BOUNDARY MISC KINETIC TOTAL TEMP POTENTIAL TOTAL3 TEMPAVG PRESSURE GPRESSURE VOLUME PRESSAVG GPRESSAVG
ENERGY: 400000 0.0000 0.0000 0.0000 0.0000 -13715.8865 2254.0255 0.0000 0.0000 720.6774 -10741.1835 123.4802 -11461.8609 -10739.8617 123.4802 -695.0586 -650.9088 29272.4941 -695.0586 -650.9088
ENERGY: 500000 0.0000 0.0000 0.0000 0.0000 -13580.2074 2258.0603 0.0000 0.0000 862.1784 -10459.9687 147.7249 -11322.1471 -10457.4093 150.3680 133.8288 184.7474 28722.1407 3.3668 3.4762
TCL: Running 100000 steps at 180 kelvin.
TCL: Setting parameter langevinTemp to 180
TCL: Running for 100000 steps
ETITLE: TS BOND ANGLE DIHED IMPRP ELECT VDW BOUNDARY MISC KINETIC TOTAL TEMP POTENTIAL TOTAL3 TEMPAVG PRESSURE GPRESSURE VOLUME PRESSAVG GPRESSAVG
ENERGY: 500000 0.0000 0.0000 0.0000 0.0000 -13580.2074 2258.0603 0.0000 0.0000 861.7388 -10460.4084 147.6495 -11322.1471 -10458.7564 147.6495 152.3826 184.7102 28722.1407 152.3826 184.7102
ENERGY: 600000 0.0000 0.0000 0.0000 0.0000 -13129.4879 2147.3857 0.0000 0.0000 1014.5492 -9967.5530 173.8319 -10982.1022 -9966.6092 179.2934 389.0971 403.5309 28877.3900 3.7095 3.5700
TCL: Running 100000 steps at 210 kelvin.
TCL: Setting parameter langevinTemp to 210
TCL: Running for 100000 steps
ETITLE: TS BOND ANGLE DIHED IMPRP ELECT VDW BOUNDARY MISC KINETIC TOTAL TEMP POTENTIAL TOTAL3 TEMPAVG PRESSURE GPRESSURE VOLUME PRESSAVG GPRESSAVG
ENERGY: 600000 0.0000 0.0000 0.0000 0.0000 -13129.4879 2147.3857 0.0000 0.0000 1014.0273 -9968.0750 173.7425 -10982.1022 -9966.2774 173.7425 342.5550 402.6702 28877.3900 342.5550 402.6702
ENERGY: 700000 0.0000 0.0000 0.0000 0.0000 -12348.3242 1850.8712 0.0000 0.0000 1223.7303 -9273.7227 209.6728 -10497.4530 -9271.1801 210.4128 6.1153 128.1689 28498.0613 3.2343 3.2912
TCL: Running 100000 steps at 240 kelvin.
TCL: Setting parameter langevinTemp to 240
TCL: Running for 100000 steps
ETITLE: TS BOND ANGLE DIHED IMPRP ELECT VDW BOUNDARY MISC KINETIC TOTAL TEMP POTENTIAL TOTAL3 TEMPAVG PRESSURE GPRESSURE VOLUME PRESSAVG GPRESSAVG
ENERGY: 700000 0.0000 0.0000 0.0000 0.0000 -12348.3242 1850.8712 0.0000 0.0000 1223.1219 -9274.3312 209.5686 -10497.4530 -9272.2553 209.5686 49.0181 128.1730 28498.0613 49.0181 128.1730
ENERGY: 800000 0.0000 0.0000 0.0000 0.0000 -11775.5718 1783.8500 0.0000 0.0000 1373.8549 -8617.8669 235.3950 -9991.7218 -8617.0026 239.7687 723.6088 841.9830 29130.6405 2.4456 2.2699
TCL: Running 100000 steps at 270 kelvin.
TCL: Setting parameter langevinTemp to 270
TCL: Running for 100000 steps
ETITLE: TS BOND ANGLE DIHED IMPRP ELECT VDW BOUNDARY MISC KINETIC TOTAL TEMP POTENTIAL TOTAL3 TEMPAVG PRESSURE GPRESSURE VOLUME PRESSAVG GPRESSAVG
ENERGY: 800000 0.0000 0.0000 0.0000 0.0000 -11775.5718 1783.8500 0.0000 0.0000 1373.1502 -8618.5716 235.2743 -9991.7218 -8616.6558 235.2743 767.7250 840.4379 29130.6405 767.7250 840.4379
ENERGY: 900000 0.0000 0.0000 0.0000 0.0000 -11202.5711 1531.7167 0.0000 0.0000 1583.5013 -8087.3530 271.3157 -9670.8543 -8085.3992 269.4140 -297.6572 -333.1356 30005.3901 3.6469 3.5652
TCL: Running 1000000 steps at 300 kelvin.
TCL: Setting parameter langevinTemp to 300
TCL: Running for 1000000 steps
ETITLE: TS BOND ANGLE DIHED IMPRP ELECT VDW BOUNDARY MISC KINETIC TOTAL TEMP POTENTIAL TOTAL3 TEMPAVG PRESSURE GPRESSURE VOLUME PRESSAVG GPRESSAVG
ENERGY: 900000 0.0000 0.0000 0.0000 0.0000 -11202.5711 1531.7167 0.0000 0.0000 1582.6822 -8088.1721 271.1753 -9670.8543 -8086.1883 271.1753 -416.3806 -332.8331 30005.3901 -416.3806 -332.8331
ENERGY: 1100000 0.0000 0.0000 0.0000 0.0000 -10861.9375 1459.6436 0.0000 0.0000 1790.2541 -7612.0398 306.7405 -9402.2940 -7607.9558 299.9912 131.8826 216.6265 29980.8673 3.5815 3.2709
ENERGY: 1300000 0.0000 0.0000 0.0000 0.0000 -10733.0866 1437.8724 0.0000 0.0000 1713.5317 -7581.6826 293.5949 -9295.2142 -7579.3584 299.2397 -198.7016 -128.8468 31074.8398 3.9133 4.0368
ENERGY: 1500000 0.0000 0.0000 0.0000 0.0000 -10746.9552 1465.3822 0.0000 0.0000 1779.0064 -7502.5666 304.8133 -9281.5730 -7498.7969 301.0058 187.3631 261.0642 30487.0167 3.2205 3.3901
ENERGY: 1700000 0.0000 0.0000 0.0000 0.0000 -10600.5962 1310.4655 0.0000 0.0000 1730.8327 -7559.2980 296.5593 -9290.1307 -7555.2974 300.2723 -1348.7689 -1273.6703 31241.8489 2.8535 2.8089
ENERGY: 1900000 0.0000 0.0000 0.0000 0.0000 -10753.5917 1484.4837 0.0000 0.0000 1750.1234 -7518.9845 299.8645 -9269.1080 -7514.7403 299.6323 487.4155 533.4259 30538.3936 3.4344 3.3499
TCL: Exiting due to exit command.
