Info: SIMULATION PARAMETERS:
Info: TIMESTEP               2
Info: NUMBER OF STEPS        0
Info: STEPS PER CYCLE        10
Info: PERIODIC CELL BASIS 1  36.592 0 0
Info: PERIODIC CELL BASIS 2  0 35.779 0
Info: PERIODIC CELL BASIS 3  0 0 33.876
Info: PERIODIC CELL CENTER   0 0 0
Info: WRAPPING WATERS AROUND PERIODIC BOUNDARIES ON OUTPUT.
Info: WRAPPING ALL CLUSTERS AROUND PERIODIC BOUNDARIES ON OUTPUT.
Info: FIRST LDB TIMESTEP     50
Info: LAST LDB TIMESTEP     -1
Info: HOM BACKGROUND SCALING 1
Info: PME BACKGROUND SCALING 1
Info: MIN ATOMS PER PATCH    40
Info: EMPTY PATCH LOAD       40 ATOMS
Info: INITIAL TEMPERATURE    300
Info: CENTER OF MASS MOVING INITIALLY? NO
Info: DIELECTRIC             1
Info: EXCLUDE                SCALED ONE-FOUR
Info: 1-4 ELECTROSTATICS SCALED BY 0.833333
Info: MODIFIED 1-4 VDW PARAMETERS WILL BE USED
Info: DCD FILENAME           mobley_6474572_equil.dcd
Info: DCD FREQUENCY          100000
Info: DCD FIRST STEP         100000
Info: DCD FILE WILL CONTAIN UNIT CELL DATA
Info: XST FILENAME           mobley_6474572_equil.xst
Info: XST FREQUENCY          100000
Info: NO VELOCITY DCD OUTPUT
Info: NO FORCE DCD OUTPUT
Info: OUTPUT FILENAME        mobley_6474572_equil
Info: BINARY OUTPUT FILES WILL BE USED
Info: RESTART FILENAME       mobley_6474572_equil.restart
Info: RESTART FREQUENCY      100000
Info: BINARY RESTART FILES WILL BE USED
Info: CUTOFF                 9
Info: PAIRLIST DISTANCE      11
Info: PAIRLIST SHRINK RATE   0.01
Info: PAIRLIST GROW RATE     0.01
Info: PAIRLIST TRIGGER       0.3
Info: PAIRLISTS PER CYCLE    2
Info: PAIRLISTS ENABLED
Info: MARGIN                 8
Info: HYDROGEN GROUP CUTOFF  2.5
Info: PATCH DIMENSION        21.5
Info: ENERGY OUTPUT STEPS    100000
Info: ENERGY EVALUATION STEPS    100000
Info: OUTPUT ENERGY PRECISION 4
Info: CROSSTERM ENERGY INCLUDED IN DIHEDRAL
Info: TIMING OUTPUT STEPS    1000000
Info: PRESSURE OUTPUT STEPS  100000
Info: FIXED ATOMS ACTIVE
Info: LANGEVIN DYNAMICS ACTIVE
Info: LANGEVIN TEMPERATURE   30
Info: LANGEVIN USING BBK INTEGRATOR
Info: LANGEVIN DAMPING COEFFICIENT IS 1 INVERSE PS
Info: LANGEVIN DYNAMICS APPLIED TO HYDROGENS
Info: LANGEVIN PISTON PRESSURE CONTROL ACTIVE
Info:        TARGET PRESSURE IS 1.01325 BAR
Info:     OSCILLATION PERIOD IS 50 FS
Info:             DECAY TIME IS 25 FS
Info:     PISTON TEMPERATURE IS 300 K
Info:       PRESSURE CONTROL IS GROUP-BASED
Info:    INITIAL STRAIN RATE IS 0 0 0
Info:       CELL FLUCTUATION IS ISOTROPIC
Info: PARTICLE MESH EWALD (PME) ACTIVE
Info: PME TOLERANCE               1e-06
Info: PME EWALD COEFFICIENT       0.348832
Info: PME INTERPOLATION ORDER     4
Info: PME GRID DIMENSIONS         40 36 36
Info: PME MAXIMUM GRID SPACING    1
Info: FULL ELECTROSTATIC EVALUATION FREQUENCY      2
Info: USING VERLET I (r-RESPA) MTS SCHEME.
Info: C1 SPLITTING OF LONG RANGE ELECTROSTATICS
Info: PLACING ATOMS IN PATCHES BY HYDROGEN GROUPS
Info: RIGID BONDS TO HYDROGEN : ALL
Info:         ERROR TOLERANCE : 1e-08
Info:          MAX ITERATIONS : 100
Info: RIGID WATER USING SETTLE ALGORITHM
Info: RANDOM NUMBER SEED     1743679438
Info: USE HYDROGEN BONDS?    NO
Info: Using AMBER format force field!
Info: AMBER PARM FILE        mobley_6474572.prmtop
Info: COORDINATE PDB         mobley_6474572.pdb
Info: Exclusions will be read from PARM file!
Info: SCNB (VDW SCALING)     2
Info: USING ARITHMETIC MEAN TO COMBINE L-J SIGMA PARAMETERS
Info: BINARY COORDINATES     mobley_6474572_min.coor
Info: SUMMARY OF PARAMETERS:
Info: 6 BONDS
Info: 5 ANGLES
Info:   5 HARMONIC
Info:   0 COSINE-BASED
Info: 2 DIHEDRAL
Info: 0 IMPROPER
Info: 0 CROSSTERM
Info: 0 VDW
Info: 21 VDW_PAIRS
Info: 0 NBTHOLE_PAIRS
Info: STRUCTURE SUMMARY:
Info: 2982 ATOMS
Info: 2981 BONDS
Info: 6 ANGLES
Info: 6 DIHEDRALS
Info: 0 IMPROPERS
Info: 0 CROSSTERMS
Info: 2991 EXCLUSIONS
Info: 6 FIXED ATOMS
Info: 2979 RIGID BONDS
Info: 3 RIGID BONDS BETWEEN FIXED ATOMS
Info: 5952 DEGREES OF FREEDOM
Info: 995 HYDROGEN GROUPS
Info: 3 ATOMS IN LARGEST HYDROGEN GROUP
Info: 995 MIGRATION GROUPS
Info: 3 ATOMS IN LARGEST MIGRATION GROUP
Info: 3 HYDROGEN GROUPS WITH ALL ATOMS FIXED
Info: TOTAL MASS = 17934.4 amu
Info: TOTAL CHARGE = 1.49012e-08 e
Info: MASS DENSITY = 0.671489 g/cm^3
Info: ATOM DENSITY = 0.0672359 atoms/A^3
Info: ADDED 0 IMPLICIT EXCLUSIONS
Info: NONBONDED TABLE R-SQUARED SPACING: 0.0625
Info: NONBONDED TABLE SIZE: 705 POINTS
Info: REMOVING COM VELOCITY 0.0929335 -0.116429 -0.0471362
TCL: Running for 100000 steps
ETITLE: TS BOND ANGLE DIHED IMPRP ELECT VDW BOUNDARY MISC KINETIC TOTAL TEMP POTENTIAL TOTAL3 TEMPAVG PRESSURE GPRESSURE VOLUME PRESSAVG GPRESSAVG
ENERGY: 0 0.0000 0.0000 0.0000 0.0000 -13783.8563 2437.7902 0.0000 0.0000 1750.4448 -9595.6212 295.9892 -11346.0660 -9595.2762 295.9892 392.6838 433.4123 44351.3118 392.6838 433.4123
ENERGY: 100000 0.0000 0.0000 0.0000 0.0000 -14458.0934 2570.8586 0.0000 0.0000 176.9259 -11710.3089 29.9171 -11887.2348 -11709.7135 30.9209 467.9390 498.6639 29319.3495 3.8323 3.8768
TCL: Running 100000 steps at 60 kelvin.
TCL: Setting parameter langevinTemp to 60
TCL: Running for 100000 steps
ETITLE: TS BOND ANGLE DIHED IMPRP ELECT VDW BOUNDARY MISC KINETIC TOTAL TEMP POTENTIAL TOTAL3 TEMPAVG PRESSURE GPRESSURE VOLUME PRESSAVG GPRESSAVG
ENERGY: 100000 0.0000 0.0000 0.0000 0.0000 -14458.0934 2570.8586 0.0000 0.0000 176.8366 -11710.3982 29.9020 -11887.2348 -11710.0132 29.9020 440.7484 498.7220 29319.3495 440.7484 498.7220
ENERGY: 200000 0.0000 0.0000 0.0000 0.0000 -14136.2376 2344.4147 0.0000 0.0000 357.1949 -11434.6280 60.3994 -11791.8230 -11433.2022 59.9897 -1054.2841 -1000.7633 29366.0675 5.5723 5.5827
TCL: Running 100000 steps at 90 kelvin.
TCL: Setting parameter langevinTemp to 90
TCL: Running for 100000 steps
ETITLE: TS BOND ANGLE DIHED IMPRP ELECT VDW BOUNDARY MISC KINETIC TOTAL TEMP POTENTIAL TOTAL3 TEMPAVG PRESSURE GPRESSURE VOLUME PRESSAVG GPRESSAVG
ENERGY: 200000 0.0000 0.0000 0.0000 0.0000 -14136.2376 2344.4147 0.0000 0.0000 357.0153 -11434.8076 60.3690 -11791.8230 -11433.9939 60.3690 -1052.3458 -1000.5028 29366.0675 -1052.3458 -1000.5028
ENERGY: 300000 0.0000 0.0000 0.0000 0.0000 -14210.9768 2482.4239 0.0000 0.0000 537.0017 -11191.5512 90.8036 -11728.5529 -11190.3221 89.8486 578.9241 672.5846 28702.7426 3.4979 3.4585
TCL: Running 100000 steps at 120 kelvin.
TCL: Setting parameter langevinTemp to 120
TCL: Running for 100000 steps
ETITLE: TS BOND ANGLE DIHED IMPRP ELECT VDW BOUNDARY MISC KINETIC TOTAL TEMP POTENTIAL TOTAL3 TEMPAVG PRESSURE GPRESSURE VOLUME PRESSAVG GPRESSAVG
ENERGY: 300000 0.0000 0.0000 0.0000 0.0000 -14210.9768 2482.4239 0.0000 0.0000 536.7239 -11191.8290 90.7566 -11728.5529 -11190.7398 90.7566 622.9569 671.9886 28702.7426 622.9569 671.9886
ENERGY: 400000 0.0000 0.0000 0.0000 0.0000 -14030.3726 2407.0806 0.0000 0.0000 699.2019 -10924.0901 118.2306 -11623.2920 -10922.8357 120.0331 210.7181 262.2719 29147.9595 4.0493 4.0332
TCL: Running 100000 steps at 150 kelvin.
TCL: Setting parameter langevinTemp to 150
TCL: Running for 100000 steps
ETITLE: TS BOND ANGLE DIHED IMPRP ELECT VDW BOUNDARY MISC KINETIC TOTAL TEMP POTENTIAL TOTAL3 TEMPAVG PRESSURE GPRESSURE VOLUME PRESSAVG GPRESSAVG
ENERGY: 400000 0.0000 0.0000 0.0000 0.0000 -14030.3726 2407.0806 0.0000 0.0000 698.8374 -10924.4546 118.1690 -11623.2920 -10923.4107 118.1690 209.4722 261.8113 29147.9595 209.4722 261.8113
ENERGY: 500000 0.0000 0.0000 0.0000 0.0000 -13644.0564 2210.1024 0.0000 0.0000 885.4857 -10548.4683 149.7301 -11433.9540 -10547.0684 149.8144 -902.7869 -824.9414 29722.2461 3.7344 3.7582
TCL: Running 100000 steps at 180 kelvin.
TCL: Setting parameter langevinTemp to 180
TCL: Running for 100000 steps
ETITLE: TS BOND ANGLE DIHED IMPRP ELECT VDW BOUNDARY MISC KINETIC TOTAL TEMP POTENTIAL TOTAL3 TEMPAVG PRESSURE GPRESSURE VOLUME PRESSAVG GPRESSAVG
ENERGY: 500000 0.0000 0.0000 0.0000 0.0000 -13644.0564 2210.1024 0.0000 0.0000 885.0195 -10548.9345 149.6512 -11433.9540 -10547.1225 149.6512 -880.4757 -825.1721 29722.2461 -880.4757 -825.1721
ENERGY: 600000 0.0000 0.0000 0.0000 0.0000 -13184.0794 2075.7802 0.0000 0.0000 1048.1827 -10060.1166 177.2411 -11108.2993 -10056.4501 179.8756 -389.9447 -353.7962 29153.6578 3.1459 3.1458
TCL: Running 100000 steps at 210 kelvin.
TCL: Setting parameter langevinTemp to 210
TCL: Running for 100000 steps
ETITLE: TS BOND ANGLE DIHED IMPRP ELECT VDW BOUNDARY MISC KINETIC TOTAL TEMP POTENTIAL TOTAL3 TEMPAVG PRESSURE GPRESSURE VOLUME PRESSAVG GPRESSAVG
ENERGY: 600000 0.0000 0.0000 0.0000 0.0000 -13184.0794 2075.7802 0.0000 0.0000 1047.6473 -10060.6520 177.1506 -11108.2993 -10058.8991 177.1506 -405.9435 -353.3328 29153.6578 -405.9435 -353.3328
ENERGY: 700000 0.0000 0.0000 0.0000 0.0000 -12803.3709 2050.6781 0.0000 0.0000 1220.8835 -9531.8093 206.4437 -10752.6928 -9528.9346 210.0150 615.3082 691.4254 28975.6691 3.9121 4.0279
TCL: Running 100000 steps at 240 kelvin.
TCL: Setting parameter langevinTemp to 240
TCL: Running for 100000 steps
ETITLE: TS BOND ANGLE DIHED IMPRP ELECT VDW BOUNDARY MISC KINETIC TOTAL TEMP POTENTIAL TOTAL3 TEMPAVG PRESSURE GPRESSURE VOLUME PRESSAVG GPRESSAVG
ENERGY: 700000 0.0000 0.0000 0.0000 0.0000 -12803.3709 2050.6781 0.0000 0.0000 1220.2679 -9532.4249 206.3396 -10752.6928 -9530.4523 206.3396 625.8846 691.9506 28975.6691 625.8846 691.9506
ENERGY: 800000 0.0000 0.0000 0.0000 0.0000 -12098.4349 1816.9726 0.0000 0.0000 1454.1466 -8827.3156 245.8871 -10281.4622 -8824.1310 239.7878 474.9397 537.6280 29226.2246 3.4533 3.5114
TCL: Running 100000 steps at 270 kelvin.
TCL: Setting parameter langevinTemp to 270
TCL: Running for 100000 steps
ETITLE: TS BOND ANGLE DIHED IMPRP ELECT VDW BOUNDARY MISC KINETIC TOTAL TEMP POTENTIAL TOTAL3 TEMPAVG PRESSURE GPRESSURE VOLUME PRESSAVG GPRESSAVG
ENERGY: 800000 0.0000 0.0000 0.0000 0.0000 -12098.4349 1816.9726 0.0000 0.0000 1453.4009 -8828.0614 245.7609 -10281.4622 -8825.4181 245.7609 451.7478 538.6310 29226.2246 451.7478 538.6310
ENERGY: 900000 0.0000 0.0000 0.0000 0.0000 -11408.3970 1600.0289 0.0000 0.0000 1628.0207 -8180.3474 275.2881 -9808.3681 -8177.3033 269.5543 -42.4892 43.0898 29986.7695 3.6111 3.5863
TCL: Running 1000000 steps at 300 kelvin.
TCL: Setting parameter langevinTemp to 300
TCL: Running for 1000000 steps
ETITLE: TS BOND ANGLE DIHED IMPRP ELECT VDW BOUNDARY MISC KINETIC TOTAL TEMP POTENTIAL TOTAL3 TEMPAVG PRESSURE GPRESSURE VOLUME PRESSAVG GPRESSAVG
ENERGY: 900000 0.0000 0.0000 0.0000 0.0000 -11408.3970 1600.0289 0.0000 0.0000 1627.2400 -8181.1281 275.1560 -9808.3681 -8179.0244 275.1560 -56.7649 42.3481 29986.7695 -56.7649 42.3481
ENERGY: 1100000 0.0000 0.0000 0.0000 0.0000 -10741.6334 1404.5642 0.0000 0.0000 1724.3482 -7612.7210 291.5764 -9337.0692 -7609.0761 299.8739 -443.7614 -336.9899 30980.7208 2.8670 2.9412
ENERGY: 1300000 0.0000 0.0000 0.0000 0.0000 -10929.1924 1488.5524 0.0000 0.0000 1767.4403 -7673.1996 298.8630 -9440.6400 -7671.2362 299.9526 -60.2148 81.5863 30671.1648 3.0854 3.2215
ENERGY: 1500000 0.0000 0.0000 0.0000 0.0000 -10696.7395 1331.3436 0.0000 0.0000 1759.0088 -7606.3871 297.4373 -9365.3959 -7601.9324 300.4597 -1042.5327 -895.4552 30984.8528 3.7748 3.7272
ENERGY: 1700000 0.0000 0.0000 0.0000 0.0000 -10829.5132 1442.5435 0.0000 0.0000 1737.2157 -7649.7540 293.7523 -9386.9697 -7646.3239 299.7786 -142.4466 -32.3984 30524.9600 2.8907 2.8112
ENERGY: 1900000 0.0000 0.0000 0.0000 0.0000 -11000.5075 1567.6708 0.0000 0.0000 1762.3230 -7670.5137 297.9977 -9432.8367 -7666.8449 300.1976 971.9496 1086.7358 30072.0020 3.0960 3.1002
TCL: Exiting due to exit command.
