Info: SIMULATION PARAMETERS:
Info: TIMESTEP               2
Info: NUMBER OF STEPS        0
Info: STEPS PER CYCLE        10
Info: PERIODIC CELL BASIS 1  39.546 0 0
Info: PERIODIC CELL BASIS 2  0 35.267 0
Info: PERIODIC CELL BASIS 3  0 0 31.349
Info: PERIODIC CELL CENTER   0 0 0
Info: WRAPPING WATERS AROUND PERIODIC BOUNDARIES ON OUTPUT.
Info: WRAPPING ALL CLUSTERS AROUND PERIODIC BOUNDARIES ON OUTPUT.
Info: FIRST LDB TIMESTEP     50
Info: LAST LDB TIMESTEP     -1
Info: HOM BACKGROUND SCALING 1
Info: PME BACKGROUND SCALING 1
Info: MIN ATOMS PER PATCH    40
Info: EMPTY PATCH LOAD       40 ATOMS
Info: INITIAL TEMPERATURE    300
Info: CENTER OF MASS MOVING INITIALLY? NO
Info: DIELECTRIC             1
Info: EXCLUDE                SCALED ONE-FOUR
Info: 1-4 ELECTROSTATICS SCALED BY 0.833333
Info: MODIFIED 1-4 VDW PARAMETERS WILL BE USED
Info: DCD FILENAME           mobley_637522_equil.dcd
Info: DCD FREQUENCY          100000
Info: DCD FIRST STEP         100000
Info: DCD FILE WILL CONTAIN UNIT CELL DATA
Info: XST FILENAME           mobley_637522_equil.xst
Info: XST FREQUENCY          100000
Info: NO VELOCITY DCD OUTPUT
Info: NO FORCE DCD OUTPUT
Info: OUTPUT FILENAME        mobley_637522_equil
Info: BINARY OUTPUT FILES WILL BE USED
Info: RESTART FILENAME       mobley_637522_equil.restart
Info: RESTART FREQUENCY      100000
Info: BINARY RESTART FILES WILL BE USED
Info: CUTOFF                 9
Info: PAIRLIST DISTANCE      11
Info: PAIRLIST SHRINK RATE   0.01
Info: PAIRLIST GROW RATE     0.01
Info: PAIRLIST TRIGGER       0.3
Info: PAIRLISTS PER CYCLE    2
Info: PAIRLISTS ENABLED
Info: MARGIN                 8
Info: HYDROGEN GROUP CUTOFF  2.5
Info: PATCH DIMENSION        21.5
Info: ENERGY OUTPUT STEPS    100000
Info: ENERGY EVALUATION STEPS    100000
Info: OUTPUT ENERGY PRECISION 4
Info: CROSSTERM ENERGY INCLUDED IN DIHEDRAL
Info: TIMING OUTPUT STEPS    1000000
Info: PRESSURE OUTPUT STEPS  100000
Info: FIXED ATOMS ACTIVE
Info: LANGEVIN DYNAMICS ACTIVE
Info: LANGEVIN TEMPERATURE   30
Info: LANGEVIN USING BBK INTEGRATOR
Info: LANGEVIN DAMPING COEFFICIENT IS 1 INVERSE PS
Info: LANGEVIN DYNAMICS APPLIED TO HYDROGENS
Info: LANGEVIN PISTON PRESSURE CONTROL ACTIVE
Info:        TARGET PRESSURE IS 1.01325 BAR
Info:     OSCILLATION PERIOD IS 50 FS
Info:             DECAY TIME IS 25 FS
Info:     PISTON TEMPERATURE IS 300 K
Info:       PRESSURE CONTROL IS GROUP-BASED
Info:    INITIAL STRAIN RATE IS 0 0 0
Info:       CELL FLUCTUATION IS ISOTROPIC
Info: PARTICLE MESH EWALD (PME) ACTIVE
Info: PME TOLERANCE               1e-06
Info: PME EWALD COEFFICIENT       0.348832
Info: PME INTERPOLATION ORDER     4
Info: PME GRID DIMENSIONS         40 36 32
Info: PME MAXIMUM GRID SPACING    1
Info: FULL ELECTROSTATIC EVALUATION FREQUENCY      2
Info: USING VERLET I (r-RESPA) MTS SCHEME.
Info: C1 SPLITTING OF LONG RANGE ELECTROSTATICS
Info: PLACING ATOMS IN PATCHES BY HYDROGEN GROUPS
Info: RIGID BONDS TO HYDROGEN : ALL
Info:         ERROR TOLERANCE : 1e-08
Info:          MAX ITERATIONS : 100
Info: RIGID WATER USING SETTLE ALGORITHM
Info: RANDOM NUMBER SEED     1743765122
Info: USE HYDROGEN BONDS?    NO
Info: Using AMBER format force field!
Info: AMBER PARM FILE        mobley_637522.prmtop
Info: COORDINATE PDB         mobley_637522.pdb
Info: Exclusions will be read from PARM file!
Info: SCNB (VDW SCALING)     2
Info: USING ARITHMETIC MEAN TO COMBINE L-J SIGMA PARAMETERS
Info: BINARY COORDINATES     mobley_637522_min.coor
Info: SUMMARY OF PARAMETERS:
Info: 4 BONDS
Info: 2 ANGLES
Info:   2 HARMONIC
Info:   0 COSINE-BASED
Info: 2 DIHEDRAL
Info: 0 IMPROPER
Info: 0 CROSSTERM
Info: 0 VDW
Info: 10 VDW_PAIRS
Info: 0 NBTHOLE_PAIRS
Info: STRUCTURE SUMMARY:
Info: 2961 ATOMS
Info: 2963 BONDS
Info: 42 ANGLES
Info: 78 DIHEDRALS
Info: 0 IMPROPERS
Info: 0 CROSSTERMS
Info: 3060 EXCLUSIONS
Info: 24 FIXED ATOMS
Info: 2947 RIGID BONDS
Info: 10 RIGID BONDS BETWEEN FIXED ATOMS
Info: 5874 DEGREES OF FREEDOM
Info: 993 HYDROGEN GROUPS
Info: 3 ATOMS IN LARGEST HYDROGEN GROUP
Info: 993 MIGRATION GROUPS
Info: 3 ATOMS IN LARGEST MIGRATION GROUP
Info: 14 HYDROGEN GROUPS WITH ALL ATOMS FIXED
Info: TOTAL MASS = 17815.9 amu
Info: TOTAL CHARGE = -2.98023e-08 e
Info: MASS DENSITY = 0.676662 g/cm^3
Info: ATOM DENSITY = 0.0677242 atoms/A^3
Info: ADDED 0 IMPLICIT EXCLUSIONS
Info: NONBONDED TABLE R-SQUARED SPACING: 0.0625
Info: NONBONDED TABLE SIZE: 705 POINTS
Info: REMOVING COM VELOCITY 0.296584 0.083449 0.155591
TCL: Running for 100000 steps
ETITLE: TS BOND ANGLE DIHED IMPRP ELECT VDW BOUNDARY MISC KINETIC TOTAL TEMP POTENTIAL TOTAL3 TEMPAVG PRESSURE GPRESSURE VOLUME PRESSAVG GPRESSAVG
ENERGY: 0 0.0000 0.0000 0.0000 0.0000 -13673.0255 2341.3474 0.0000 0.0000 1798.4780 -9533.2001 308.1496 -11331.6782 -9532.8333 308.1496 67.5685 97.1423 43721.4716 67.5685 97.1423
ENERGY: 100000 0.0000 0.0000 0.0000 0.0000 -14029.6276 2319.1822 0.0000 0.0000 178.3888 -11532.0566 30.5650 -11710.4455 -11531.7019 30.8600 -1140.9346 -1090.9419 29687.0117 4.6703 4.6669
TCL: Running 100000 steps at 60 kelvin.
TCL: Setting parameter langevinTemp to 60
TCL: Running for 100000 steps
ETITLE: TS BOND ANGLE DIHED IMPRP ELECT VDW BOUNDARY MISC KINETIC TOTAL TEMP POTENTIAL TOTAL3 TEMPAVG PRESSURE GPRESSURE VOLUME PRESSAVG GPRESSAVG
ENERGY: 100000 0.0000 0.0000 0.0000 0.0000 -14029.6276 2319.1822 0.0000 0.0000 178.2995 -11532.1460 30.5497 -11710.4455 -11531.7791 30.5497 -1143.7702 -1090.8807 29687.0117 -1143.7702 -1090.8807
ENERGY: 200000 0.0000 0.0000 0.0000 0.0000 -14176.2629 2533.7980 0.0000 0.0000 351.5562 -11290.9087 60.2353 -11642.4649 -11290.4014 60.1569 1164.9826 1230.8246 28905.8619 4.1784 4.1021
TCL: Running 100000 steps at 90 kelvin.
TCL: Setting parameter langevinTemp to 90
TCL: Running for 100000 steps
ETITLE: TS BOND ANGLE DIHED IMPRP ELECT VDW BOUNDARY MISC KINETIC TOTAL TEMP POTENTIAL TOTAL3 TEMPAVG PRESSURE GPRESSURE VOLUME PRESSAVG GPRESSAVG
ENERGY: 200000 0.0000 0.0000 0.0000 0.0000 -14176.2629 2533.7980 0.0000 0.0000 351.3895 -11291.0754 60.2068 -11642.4649 -11290.4336 60.2068 1165.4821 1230.6727 28905.8619 1165.4821 1230.6727
ENERGY: 300000 0.0000 0.0000 0.0000 0.0000 -14001.8592 2440.2151 0.0000 0.0000 525.7103 -11035.9339 90.0747 -11561.6442 -11035.0901 90.1315 785.2507 836.4392 28702.5246 3.6789 3.6337
TCL: Running 100000 steps at 120 kelvin.
TCL: Setting parameter langevinTemp to 120
TCL: Running for 100000 steps
ETITLE: TS BOND ANGLE DIHED IMPRP ELECT VDW BOUNDARY MISC KINETIC TOTAL TEMP POTENTIAL TOTAL3 TEMPAVG PRESSURE GPRESSURE VOLUME PRESSAVG GPRESSAVG
ENERGY: 300000 0.0000 0.0000 0.0000 0.0000 -14001.8592 2440.2151 0.0000 0.0000 525.4488 -11036.1954 90.0299 -11561.6442 -11035.3843 90.0299 781.1473 835.6770 28702.5246 781.1473 835.6770
ENERGY: 400000 0.0000 0.0000 0.0000 0.0000 -13816.1173 2319.9619 0.0000 0.0000 709.5295 -10786.6259 121.5701 -11496.1554 -10785.0637 119.9653 -11.5212 37.9096 28596.6324 4.6365 4.6087
TCL: Running 100000 steps at 150 kelvin.
TCL: Setting parameter langevinTemp to 150
TCL: Running for 100000 steps
ETITLE: TS BOND ANGLE DIHED IMPRP ELECT VDW BOUNDARY MISC KINETIC TOTAL TEMP POTENTIAL TOTAL3 TEMPAVG PRESSURE GPRESSURE VOLUME PRESSAVG GPRESSAVG
ENERGY: 400000 0.0000 0.0000 0.0000 0.0000 -13816.1173 2319.9619 0.0000 0.0000 709.1716 -10786.9838 121.5088 -11496.1554 -10785.2978 121.5088 -23.5629 37.7460 28596.6324 -23.5629 37.7460
ENERGY: 500000 0.0000 0.0000 0.0000 0.0000 -13483.2278 2167.7917 0.0000 0.0000 865.1251 -10450.3110 148.2297 -11315.4362 -10447.7162 149.9633 -672.6381 -619.7383 28951.6284 2.6113 2.4069
TCL: Running 100000 steps at 180 kelvin.
TCL: Setting parameter langevinTemp to 180
TCL: Running for 100000 steps
ETITLE: TS BOND ANGLE DIHED IMPRP ELECT VDW BOUNDARY MISC KINETIC TOTAL TEMP POTENTIAL TOTAL3 TEMPAVG PRESSURE GPRESSURE VOLUME PRESSAVG GPRESSAVG
ENERGY: 500000 0.0000 0.0000 0.0000 0.0000 -13483.2278 2167.7917 0.0000 0.0000 864.6693 -10450.7669 148.1516 -11315.4362 -10448.9242 148.1516 -652.1495 -619.2783 28951.6284 -652.1495 -619.2783
ENERGY: 600000 0.0000 0.0000 0.0000 0.0000 -13216.9381 2178.2055 0.0000 0.0000 1052.3034 -9986.4293 180.3007 -11038.7326 -9986.7415 179.7626 551.0209 600.7414 28963.1115 4.2447 4.1375
TCL: Running 100000 steps at 210 kelvin.
TCL: Setting parameter langevinTemp to 210
TCL: Running for 100000 steps
ETITLE: TS BOND ANGLE DIHED IMPRP ELECT VDW BOUNDARY MISC KINETIC TOTAL TEMP POTENTIAL TOTAL3 TEMPAVG PRESSURE GPRESSURE VOLUME PRESSAVG GPRESSAVG
ENERGY: 600000 0.0000 0.0000 0.0000 0.0000 -13216.9381 2178.2055 0.0000 0.0000 1051.7998 -9986.9328 180.2144 -11038.7326 -9985.2643 180.2144 547.0269 598.0452 28963.1115 547.0269 598.0452
ENERGY: 700000 0.0000 0.0000 0.0000 0.0000 -12422.9793 1863.6422 0.0000 0.0000 1193.4624 -9365.8748 204.4867 -10559.3371 -9361.4942 209.7284 -294.6501 -222.1564 28941.8247 5.0140 5.1034
TCL: Running 100000 steps at 240 kelvin.
TCL: Setting parameter langevinTemp to 240
TCL: Running for 100000 steps
ETITLE: TS BOND ANGLE DIHED IMPRP ELECT VDW BOUNDARY MISC KINETIC TOTAL TEMP POTENTIAL TOTAL3 TEMPAVG PRESSURE GPRESSURE VOLUME PRESSAVG GPRESSAVG
ENERGY: 700000 0.0000 0.0000 0.0000 0.0000 -12422.9793 1863.6422 0.0000 0.0000 1192.8592 -9366.4779 204.3834 -10559.3371 -9364.2730 204.3834 -276.4443 -221.2278 28941.8247 -276.4443 -221.2278
ENERGY: 800000 0.0000 0.0000 0.0000 0.0000 -11702.4633 1704.9961 0.0000 0.0000 1378.1346 -8619.3326 236.1283 -9997.4672 -8616.0818 239.3927 284.6221 368.5435 29219.2212 1.3767 1.2168
TCL: Running 100000 steps at 270 kelvin.
TCL: Setting parameter langevinTemp to 270
TCL: Running for 100000 steps
ETITLE: TS BOND ANGLE DIHED IMPRP ELECT VDW BOUNDARY MISC KINETIC TOTAL TEMP POTENTIAL TOTAL3 TEMPAVG PRESSURE GPRESSURE VOLUME PRESSAVG GPRESSAVG
ENERGY: 800000 0.0000 0.0000 0.0000 0.0000 -11702.4633 1704.9961 0.0000 0.0000 1377.4458 -8620.0213 236.0103 -9997.4672 -8617.2288 236.0103 285.2879 367.9832 29219.2212 285.2879 367.9832
ENERGY: 900000 0.0000 0.0000 0.0000 0.0000 -11120.9939 1497.6560 0.0000 0.0000 1615.3729 -8007.9651 276.7765 -9623.3380 -8005.6008 269.8512 -265.7386 -164.7752 29784.7531 2.6596 2.6539
TCL: Running 1000000 steps at 300 kelvin.
TCL: Setting parameter langevinTemp to 300
TCL: Running for 1000000 steps
ETITLE: TS BOND ANGLE DIHED IMPRP ELECT VDW BOUNDARY MISC KINETIC TOTAL TEMP POTENTIAL TOTAL3 TEMPAVG PRESSURE GPRESSURE VOLUME PRESSAVG GPRESSAVG
ENERGY: 900000 0.0000 0.0000 0.0000 0.0000 -11120.9939 1497.6560 0.0000 0.0000 1614.6021 -8008.7359 276.6444 -9623.3380 -8006.2774 276.6444 -246.9179 -167.8920 29784.7531 -246.9179 -167.8920
ENERGY: 1100000 0.0000 0.0000 0.0000 0.0000 -10762.5267 1453.6960 0.0000 0.0000 1800.4431 -7508.3876 308.4863 -9308.8307 -7504.8759 300.1466 -155.1364 -51.6657 30992.0344 2.7728 2.8032
ENERGY: 1300000 0.0000 0.0000 0.0000 0.0000 -10749.5146 1455.6753 0.0000 0.0000 1735.3524 -7558.4869 297.3337 -9293.8393 -7554.8221 300.3961 -0.3489 80.2945 30675.7437 3.7988 3.7531
ENERGY: 1500000 0.0000 0.0000 0.0000 0.0000 -10738.4483 1383.8495 0.0000 0.0000 1736.0096 -7618.5892 297.4463 -9354.5988 -7613.2811 300.5866 -409.5843 -388.4915 30477.0091 4.3912 4.3103
ENERGY: 1700000 0.0000 0.0000 0.0000 0.0000 -10564.6558 1339.5302 0.0000 0.0000 1734.4236 -7490.7020 297.1745 -9225.1256 -7487.5774 299.8513 -528.3724 -489.6914 30738.5248 2.9401 2.8832
ENERGY: 1900000 0.0000 0.0000 0.0000 0.0000 -10863.1932 1488.6409 0.0000 0.0000 1751.8225 -7622.7298 300.1557 -9374.5523 -7618.8719 300.3662 17.4653 124.2398 30701.8844 3.3010 3.5560
TCL: Exiting due to exit command.
