Info: SIMULATION PARAMETERS:
Info: TIMESTEP               2
Info: NUMBER OF STEPS        0
Info: STEPS PER CYCLE        10
Info: PERIODIC CELL BASIS 1  37.435 0 0
Info: PERIODIC CELL BASIS 2  0 35.779 0
Info: PERIODIC CELL BASIS 3  0 0 31.855
Info: PERIODIC CELL CENTER   0 0 0
Info: WRAPPING WATERS AROUND PERIODIC BOUNDARIES ON OUTPUT.
Info: WRAPPING ALL CLUSTERS AROUND PERIODIC BOUNDARIES ON OUTPUT.
Info: FIRST LDB TIMESTEP     50
Info: LAST LDB TIMESTEP     -1
Info: HOM BACKGROUND SCALING 1
Info: PME BACKGROUND SCALING 1
Info: MIN ATOMS PER PATCH    40
Info: EMPTY PATCH LOAD       40 ATOMS
Info: INITIAL TEMPERATURE    300
Info: CENTER OF MASS MOVING INITIALLY? NO
Info: DIELECTRIC             1
Info: EXCLUDE                SCALED ONE-FOUR
Info: 1-4 ELECTROSTATICS SCALED BY 0.833333
Info: MODIFIED 1-4 VDW PARAMETERS WILL BE USED
Info: DCD FILENAME           mobley_4193752_equil.dcd
Info: DCD FREQUENCY          100000
Info: DCD FIRST STEP         100000
Info: DCD FILE WILL CONTAIN UNIT CELL DATA
Info: XST FILENAME           mobley_4193752_equil.xst
Info: XST FREQUENCY          100000
Info: NO VELOCITY DCD OUTPUT
Info: NO FORCE DCD OUTPUT
Info: OUTPUT FILENAME        mobley_4193752_equil
Info: BINARY OUTPUT FILES WILL BE USED
Info: RESTART FILENAME       mobley_4193752_equil.restart
Info: RESTART FREQUENCY      100000
Info: BINARY RESTART FILES WILL BE USED
Info: CUTOFF                 9
Info: PAIRLIST DISTANCE      11
Info: PAIRLIST SHRINK RATE   0.01
Info: PAIRLIST GROW RATE     0.01
Info: PAIRLIST TRIGGER       0.3
Info: PAIRLISTS PER CYCLE    2
Info: PAIRLISTS ENABLED
Info: MARGIN                 8
Info: HYDROGEN GROUP CUTOFF  2.5
Info: PATCH DIMENSION        21.5
Info: ENERGY OUTPUT STEPS    100000
Info: ENERGY EVALUATION STEPS    100000
Info: OUTPUT ENERGY PRECISION 4
Info: CROSSTERM ENERGY INCLUDED IN DIHEDRAL
Info: TIMING OUTPUT STEPS    1000000
Info: PRESSURE OUTPUT STEPS  100000
Info: FIXED ATOMS ACTIVE
Info: LANGEVIN DYNAMICS ACTIVE
Info: LANGEVIN TEMPERATURE   30
Info: LANGEVIN USING BBK INTEGRATOR
Info: LANGEVIN DAMPING COEFFICIENT IS 1 INVERSE PS
Info: LANGEVIN DYNAMICS APPLIED TO HYDROGENS
Info: LANGEVIN PISTON PRESSURE CONTROL ACTIVE
Info:        TARGET PRESSURE IS 1.01325 BAR
Info:     OSCILLATION PERIOD IS 50 FS
Info:             DECAY TIME IS 25 FS
Info:     PISTON TEMPERATURE IS 300 K
Info:       PRESSURE CONTROL IS GROUP-BASED
Info:    INITIAL STRAIN RATE IS 0 0 0
Info:       CELL FLUCTUATION IS ISOTROPIC
Info: PARTICLE MESH EWALD (PME) ACTIVE
Info: PME TOLERANCE               1e-06
Info: PME EWALD COEFFICIENT       0.348832
Info: PME INTERPOLATION ORDER     4
Info: PME GRID DIMENSIONS         40 36 32
Info: PME MAXIMUM GRID SPACING    1
Info: FULL ELECTROSTATIC EVALUATION FREQUENCY      2
Info: USING VERLET I (r-RESPA) MTS SCHEME.
Info: C1 SPLITTING OF LONG RANGE ELECTROSTATICS
Info: PLACING ATOMS IN PATCHES BY HYDROGEN GROUPS
Info: RIGID BONDS TO HYDROGEN : ALL
Info:         ERROR TOLERANCE : 1e-08
Info:          MAX ITERATIONS : 100
Info: RIGID WATER USING SETTLE ALGORITHM
Info: RANDOM NUMBER SEED     1743901161
Info: USE HYDROGEN BONDS?    NO
Info: Using AMBER format force field!
Info: AMBER PARM FILE        mobley_4193752.prmtop
Info: COORDINATE PDB         mobley_4193752.pdb
Info: Exclusions will be read from PARM file!
Info: SCNB (VDW SCALING)     2
Info: USING ARITHMETIC MEAN TO COMBINE L-J SIGMA PARAMETERS
Info: BINARY COORDINATES     mobley_4193752_min.coor
Info: SUMMARY OF PARAMETERS:
Info: 6 BONDS
Info: 5 ANGLES
Info:   5 HARMONIC
Info:   0 COSINE-BASED
Info: 3 DIHEDRAL
Info: 0 IMPROPER
Info: 0 CROSSTERM
Info: 0 VDW
Info: 21 VDW_PAIRS
Info: 0 NBTHOLE_PAIRS
Info: STRUCTURE SUMMARY:
Info: 2933 ATOMS
Info: 2933 BONDS
Info: 21 ANGLES
Info: 34 DIHEDRALS
Info: 0 IMPROPERS
Info: 0 CROSSTERMS
Info: 2979 EXCLUSIONS
Info: 14 FIXED ATOMS
Info: 2924 RIGID BONDS
Info: 5 RIGID BONDS BETWEEN FIXED ATOMS
Info: 5838 DEGREES OF FREEDOM
Info: 982 HYDROGEN GROUPS
Info: 3 ATOMS IN LARGEST HYDROGEN GROUP
Info: 982 MIGRATION GROUPS
Info: 3 ATOMS IN LARGEST MIGRATION GROUP
Info: 9 HYDROGEN GROUPS WITH ALL ATOMS FIXED
Info: TOTAL MASS = 17652.7 amu
Info: TOTAL CHARGE = 7.45058e-09 e
Info: MASS DENSITY = 0.687047 g/cm^3
Info: ATOM DENSITY = 0.068743 atoms/A^3
Info: ADDED 0 IMPLICIT EXCLUSIONS
Info: NONBONDED TABLE R-SQUARED SPACING: 0.0625
Info: NONBONDED TABLE SIZE: 705 POINTS
Info: REMOVING COM VELOCITY -0.0814718 -0.163524 0.0242147
TCL: Running for 100000 steps
ETITLE: TS BOND ANGLE DIHED IMPRP ELECT VDW BOUNDARY MISC KINETIC TOTAL TEMP POTENTIAL TOTAL3 TEMPAVG PRESSURE GPRESSURE VOLUME PRESSAVG GPRESSAVG
ENERGY: 0 0.0000 0.0000 0.0000 0.0000 -13601.5248 2362.9803 0.0000 0.0000 1695.4616 -9543.0829 292.2902 -11238.5445 -9542.7344 292.2902 132.6976 174.6455 42666.1686 132.6976 174.6455
ENERGY: 100000 0.0000 0.0000 0.0000 0.0000 -13987.9917 2350.9100 0.0000 0.0000 170.4802 -11466.6014 29.3901 -11637.0816 -11466.0763 30.8859 -828.2071 -777.2111 29422.6325 4.6143 4.6233
TCL: Running 100000 steps at 60 kelvin.
TCL: Setting parameter langevinTemp to 60
TCL: Running for 100000 steps
ETITLE: TS BOND ANGLE DIHED IMPRP ELECT VDW BOUNDARY MISC KINETIC TOTAL TEMP POTENTIAL TOTAL3 TEMPAVG PRESSURE GPRESSURE VOLUME PRESSAVG GPRESSAVG
ENERGY: 100000 0.0000 0.0000 0.0000 0.0000 -13987.9917 2350.9100 0.0000 0.0000 170.3946 -11466.6870 29.3753 -11637.0816 -11466.1695 29.3753 -839.7347 -776.9955 29422.6325 -839.7347 -776.9955
ENERGY: 200000 0.0000 0.0000 0.0000 0.0000 -14079.3103 2501.6959 0.0000 0.0000 340.9609 -11236.6535 58.7802 -11577.6144 -11235.3822 59.8405 861.7704 927.9745 28817.8950 4.4413 4.4167
TCL: Running 100000 steps at 90 kelvin.
TCL: Setting parameter langevinTemp to 90
TCL: Running for 100000 steps
ETITLE: TS BOND ANGLE DIHED IMPRP ELECT VDW BOUNDARY MISC KINETIC TOTAL TEMP POTENTIAL TOTAL3 TEMPAVG PRESSURE GPRESSURE VOLUME PRESSAVG GPRESSAVG
ENERGY: 200000 0.0000 0.0000 0.0000 0.0000 -14079.3103 2501.6959 0.0000 0.0000 340.7879 -11236.8265 58.7504 -11577.6144 -11236.1994 58.7504 850.7607 928.5691 28817.8950 850.7607 928.5691
ENERGY: 300000 0.0000 0.0000 0.0000 0.0000 -13836.9024 2331.9337 0.0000 0.0000 519.3423 -10985.6264 89.5323 -11504.9687 -10985.2680 90.0015 -263.5441 -202.6020 28975.3740 3.9386 3.9371
TCL: Running 100000 steps at 120 kelvin.
TCL: Setting parameter langevinTemp to 120
TCL: Running for 100000 steps
ETITLE: TS BOND ANGLE DIHED IMPRP ELECT VDW BOUNDARY MISC KINETIC TOTAL TEMP POTENTIAL TOTAL3 TEMPAVG PRESSURE GPRESSURE VOLUME PRESSAVG GPRESSAVG
ENERGY: 300000 0.0000 0.0000 0.0000 0.0000 -13836.9024 2331.9337 0.0000 0.0000 519.0853 -10985.8834 89.4880 -11504.9687 -10984.8697 89.4880 -268.8727 -203.1175 28975.3740 -268.8727 -203.1175
ENERGY: 400000 0.0000 0.0000 0.0000 0.0000 -13697.1011 2302.8247 0.0000 0.0000 697.1876 -10697.0887 120.1921 -11394.2764 -10695.1133 119.6470 -267.4181 -222.9279 29172.6857 4.5424 4.6840
TCL: Running 100000 steps at 150 kelvin.
TCL: Setting parameter langevinTemp to 150
TCL: Running for 100000 steps
ETITLE: TS BOND ANGLE DIHED IMPRP ELECT VDW BOUNDARY MISC KINETIC TOTAL TEMP POTENTIAL TOTAL3 TEMPAVG PRESSURE GPRESSURE VOLUME PRESSAVG GPRESSAVG
ENERGY: 400000 0.0000 0.0000 0.0000 0.0000 -13697.1011 2302.8247 0.0000 0.0000 696.8398 -10697.4365 120.1322 -11394.2764 -10695.8789 120.1322 -268.9672 -221.9501 29172.6857 -268.9672 -221.9501
ENERGY: 500000 0.0000 0.0000 0.0000 0.0000 -13151.7088 1981.1518 0.0000 0.0000 855.8359 -10314.7212 147.5424 -11170.5571 -10313.0269 149.6638 -2006.0400 -2006.2708 29311.5655 3.0188 3.1201
TCL: Running 100000 steps at 180 kelvin.
TCL: Setting parameter langevinTemp to 180
TCL: Running for 100000 steps
ETITLE: TS BOND ANGLE DIHED IMPRP ELECT VDW BOUNDARY MISC KINETIC TOTAL TEMP POTENTIAL TOTAL3 TEMPAVG PRESSURE GPRESSURE VOLUME PRESSAVG GPRESSAVG
ENERGY: 500000 0.0000 0.0000 0.0000 0.0000 -13151.7088 1981.1518 0.0000 0.0000 855.4083 -10315.1487 147.4687 -11170.5571 -10313.2981 147.4687 -2060.6837 -2006.6283 29311.5655 -2060.6837 -2006.6283
ENERGY: 600000 0.0000 0.0000 0.0000 0.0000 -12896.0428 2006.0962 0.0000 0.0000 1030.9857 -9858.9609 177.7375 -10889.9466 -9856.6413 179.6765 -625.9480 -564.7746 28847.4818 4.7887 4.7491
TCL: Running 100000 steps at 210 kelvin.
TCL: Setting parameter langevinTemp to 210
TCL: Running for 100000 steps
ETITLE: TS BOND ANGLE DIHED IMPRP ELECT VDW BOUNDARY MISC KINETIC TOTAL TEMP POTENTIAL TOTAL3 TEMPAVG PRESSURE GPRESSURE VOLUME PRESSAVG GPRESSAVG
ENERGY: 600000 0.0000 0.0000 0.0000 0.0000 -12896.0428 2006.0962 0.0000 0.0000 1030.4636 -9859.4830 177.6474 -10889.9466 -9857.3847 177.6474 -626.0734 -565.4021 28847.4818 -626.0734 -565.4021
ENERGY: 700000 0.0000 0.0000 0.0000 0.0000 -12310.9650 1808.9142 0.0000 0.0000 1246.2736 -9255.7772 214.8521 -10502.0508 -9255.1933 209.7835 -541.3949 -518.2954 28682.0632 4.2952 4.2009
TCL: Running 100000 steps at 240 kelvin.
TCL: Setting parameter langevinTemp to 240
TCL: Running for 100000 steps
ETITLE: TS BOND ANGLE DIHED IMPRP ELECT VDW BOUNDARY MISC KINETIC TOTAL TEMP POTENTIAL TOTAL3 TEMPAVG PRESSURE GPRESSURE VOLUME PRESSAVG GPRESSAVG
ENERGY: 700000 0.0000 0.0000 0.0000 0.0000 -12310.9650 1808.9142 0.0000 0.0000 1245.6697 -9256.3811 214.7480 -10502.0508 -9254.2409 214.7480 -601.0229 -520.6204 28682.0632 -601.0229 -520.6204
ENERGY: 800000 0.0000 0.0000 0.0000 0.0000 -11723.3689 1655.3773 0.0000 0.0000 1455.7638 -8612.2278 250.9673 -10067.9916 -8608.3741 239.7217 -605.3539 -472.9258 29129.3405 3.8678 4.0215
TCL: Running 100000 steps at 270 kelvin.
TCL: Setting parameter langevinTemp to 270
TCL: Running for 100000 steps
ETITLE: TS BOND ANGLE DIHED IMPRP ELECT VDW BOUNDARY MISC KINETIC TOTAL TEMP POTENTIAL TOTAL3 TEMPAVG PRESSURE GPRESSURE VOLUME PRESSAVG GPRESSAVG
ENERGY: 800000 0.0000 0.0000 0.0000 0.0000 -11723.3689 1655.3773 0.0000 0.0000 1455.0547 -8612.9369 250.8451 -10067.9916 -8610.1470 250.8451 -551.5873 -472.5989 29129.3405 -551.5873 -472.5989
ENERGY: 900000 0.0000 0.0000 0.0000 0.0000 -11099.9811 1516.8419 0.0000 0.0000 1572.2309 -8010.9083 271.0458 -9583.1392 -8008.0487 270.2754 -117.4104 -52.6298 29444.1116 2.3511 2.4921
TCL: Running 1000000 steps at 300 kelvin.
TCL: Setting parameter langevinTemp to 300
TCL: Running for 1000000 steps
ETITLE: TS BOND ANGLE DIHED IMPRP ELECT VDW BOUNDARY MISC KINETIC TOTAL TEMP POTENTIAL TOTAL3 TEMPAVG PRESSURE GPRESSURE VOLUME PRESSAVG GPRESSAVG
ENERGY: 900000 0.0000 0.0000 0.0000 0.0000 -11099.9811 1516.8419 0.0000 0.0000 1571.4795 -8011.6597 270.9162 -9583.1392 -8009.4181 270.9162 -145.7877 -52.7452 29444.1116 -145.7877 -52.7452
ENERGY: 1100000 0.0000 0.0000 0.0000 0.0000 -10740.6132 1493.8051 0.0000 0.0000 1779.5075 -7467.3006 306.7794 -9246.8082 -7462.6568 300.1956 569.0301 630.3736 30197.7845 3.7123 3.7326
ENERGY: 1300000 0.0000 0.0000 0.0000 0.0000 -10728.6679 1467.8599 0.0000 0.0000 1755.6305 -7505.1775 302.6631 -9260.8080 -7501.4317 299.6371 151.5086 197.5037 30331.2317 2.2845 2.3125
ENERGY: 1500000 0.0000 0.0000 0.0000 0.0000 -10643.9029 1463.1773 0.0000 0.0000 1711.8095 -7468.9161 295.1085 -9180.7256 -7466.1856 299.8943 225.4745 312.9488 30507.9980 2.8078 2.6268
ENERGY: 1700000 0.0000 0.0000 0.0000 0.0000 -10710.2621 1483.3013 0.0000 0.0000 1755.6488 -7471.3120 302.6662 -9226.9608 -7468.8203 300.4002 444.1492 517.0431 30166.9217 2.8810 3.0115
ENERGY: 1900000 0.0000 0.0000 0.0000 0.0000 -10759.3347 1511.4085 0.0000 0.0000 1730.3373 -7517.5889 298.3026 -9247.9262 -7512.0882 299.6660 814.1219 799.5669 29822.7415 3.0843 2.9767
TCL: Exiting due to exit command.
