Info: SIMULATION PARAMETERS:
Info: TIMESTEP               2
Info: NUMBER OF STEPS        0
Info: STEPS PER CYCLE        10
Info: PERIODIC CELL BASIS 1  36.592 0 0
Info: PERIODIC CELL BASIS 2  0 36.451 0
Info: PERIODIC CELL BASIS 3  0 0 33.27
Info: PERIODIC CELL CENTER   0 0 0
Info: WRAPPING WATERS AROUND PERIODIC BOUNDARIES ON OUTPUT.
Info: WRAPPING ALL CLUSTERS AROUND PERIODIC BOUNDARIES ON OUTPUT.
Info: FIRST LDB TIMESTEP     50
Info: LAST LDB TIMESTEP     -1
Info: HOM BACKGROUND SCALING 1
Info: PME BACKGROUND SCALING 1
Info: MIN ATOMS PER PATCH    40
Info: EMPTY PATCH LOAD       40 ATOMS
Info: INITIAL TEMPERATURE    300
Info: CENTER OF MASS MOVING INITIALLY? NO
Info: DIELECTRIC             1
Info: EXCLUDE                SCALED ONE-FOUR
Info: 1-4 ELECTROSTATICS SCALED BY 0.833333
Info: MODIFIED 1-4 VDW PARAMETERS WILL BE USED
Info: DCD FILENAME           mobley_3187514_equil.dcd
Info: DCD FREQUENCY          100000
Info: DCD FIRST STEP         100000
Info: DCD FILE WILL CONTAIN UNIT CELL DATA
Info: XST FILENAME           mobley_3187514_equil.xst
Info: XST FREQUENCY          100000
Info: NO VELOCITY DCD OUTPUT
Info: NO FORCE DCD OUTPUT
Info: OUTPUT FILENAME        mobley_3187514_equil
Info: BINARY OUTPUT FILES WILL BE USED
Info: RESTART FILENAME       mobley_3187514_equil.restart
Info: RESTART FREQUENCY      100000
Info: BINARY RESTART FILES WILL BE USED
Info: CUTOFF                 9
Info: PAIRLIST DISTANCE      11
Info: PAIRLIST SHRINK RATE   0.01
Info: PAIRLIST GROW RATE     0.01
Info: PAIRLIST TRIGGER       0.3
Info: PAIRLISTS PER CYCLE    2
Info: PAIRLISTS ENABLED
Info: MARGIN                 8
Info: HYDROGEN GROUP CUTOFF  2.5
Info: PATCH DIMENSION        21.5
Info: ENERGY OUTPUT STEPS    100000
Info: ENERGY EVALUATION STEPS    100000
Info: OUTPUT ENERGY PRECISION 4
Info: CROSSTERM ENERGY INCLUDED IN DIHEDRAL
Info: TIMING OUTPUT STEPS    1000000
Info: PRESSURE OUTPUT STEPS  100000
Info: FIXED ATOMS ACTIVE
Info: LANGEVIN DYNAMICS ACTIVE
Info: LANGEVIN TEMPERATURE   30
Info: LANGEVIN USING BBK INTEGRATOR
Info: LANGEVIN DAMPING COEFFICIENT IS 1 INVERSE PS
Info: LANGEVIN DYNAMICS APPLIED TO HYDROGENS
Info: LANGEVIN PISTON PRESSURE CONTROL ACTIVE
Info:        TARGET PRESSURE IS 1.01325 BAR
Info:     OSCILLATION PERIOD IS 50 FS
Info:             DECAY TIME IS 25 FS
Info:     PISTON TEMPERATURE IS 300 K
Info:       PRESSURE CONTROL IS GROUP-BASED
Info:    INITIAL STRAIN RATE IS 0 0 0
Info:       CELL FLUCTUATION IS ISOTROPIC
Info: PARTICLE MESH EWALD (PME) ACTIVE
Info: PME TOLERANCE               1e-06
Info: PME EWALD COEFFICIENT       0.348832
Info: PME INTERPOLATION ORDER     4
Info: PME GRID DIMENSIONS         40 40 36
Info: PME MAXIMUM GRID SPACING    1
Info: FULL ELECTROSTATIC EVALUATION FREQUENCY      2
Info: USING VERLET I (r-RESPA) MTS SCHEME.
Info: C1 SPLITTING OF LONG RANGE ELECTROSTATICS
Info: PLACING ATOMS IN PATCHES BY HYDROGEN GROUPS
Info: RIGID BONDS TO HYDROGEN : ALL
Info:         ERROR TOLERANCE : 1e-08
Info:          MAX ITERATIONS : 100
Info: RIGID WATER USING SETTLE ALGORITHM
Info: RANDOM NUMBER SEED     1743739394
Info: USE HYDROGEN BONDS?    NO
Info: Using AMBER format force field!
Info: AMBER PARM FILE        mobley_3187514.prmtop
Info: COORDINATE PDB         mobley_3187514.pdb
Info: Exclusions will be read from PARM file!
Info: SCNB (VDW SCALING)     2
Info: USING ARITHMETIC MEAN TO COMBINE L-J SIGMA PARAMETERS
Info: BINARY COORDINATES     mobley_3187514_min.coor
Info: SUMMARY OF PARAMETERS:
Info: 8 BONDS
Info: 8 ANGLES
Info:   8 HARMONIC
Info:   0 COSINE-BASED
Info: 4 DIHEDRAL
Info: 0 IMPROPER
Info: 0 CROSSTERM
Info: 0 VDW
Info: 36 VDW_PAIRS
Info: 0 NBTHOLE_PAIRS
Info: STRUCTURE SUMMARY:
Info: 2939 ATOMS
Info: 2939 BONDS
Info: 27 ANGLES
Info: 41 DIHEDRALS
Info: 0 IMPROPERS
Info: 0 CROSSTERMS
Info: 2997 EXCLUSIONS
Info: 17 FIXED ATOMS
Info: 2931 RIGID BONDS
Info: 9 RIGID BONDS BETWEEN FIXED ATOMS
Info: 5844 DEGREES OF FREEDOM
Info: 982 HYDROGEN GROUPS
Info: 4 ATOMS IN LARGEST HYDROGEN GROUP
Info: 982 MIGRATION GROUPS
Info: 4 ATOMS IN LARGEST MIGRATION GROUP
Info: 8 HYDROGEN GROUPS WITH ALL ATOMS FIXED
Info: TOTAL MASS = 17654.7 amu
Info: TOTAL CHARGE = 4.09782e-08 e
Info: MASS DENSITY = 0.660651 g/cm^3
Info: ATOM DENSITY = 0.0662295 atoms/A^3
Info: ADDED 0 IMPLICIT EXCLUSIONS
Info: NONBONDED TABLE R-SQUARED SPACING: 0.0625
Info: NONBONDED TABLE SIZE: 705 POINTS
Info: REMOVING COM VELOCITY 0.132483 0.0594991 0.0104962
TCL: Running for 100000 steps
ETITLE: TS BOND ANGLE DIHED IMPRP ELECT VDW BOUNDARY MISC KINETIC TOTAL TEMP POTENTIAL TOTAL3 TEMPAVG PRESSURE GPRESSURE VOLUME PRESSAVG GPRESSAVG
ENERGY: 0 0.0000 0.0000 0.0000 0.0000 -13718.4427 2377.7267 0.0000 0.0000 1746.0578 -9594.6582 300.7037 -11340.7160 -9594.2711 300.7037 253.5918 278.6952 44376.0248 253.5918 278.6952
ENERGY: 100000 0.0000 0.0000 0.0000 0.0000 -14181.3047 2417.8681 0.0000 0.0000 174.6656 -11588.7710 30.0807 -11763.4366 -11588.3858 30.8463 -318.8543 -273.5223 28681.1681 3.4602 3.4642
TCL: Running 100000 steps at 60 kelvin.
TCL: Setting parameter langevinTemp to 60
TCL: Running for 100000 steps
ETITLE: TS BOND ANGLE DIHED IMPRP ELECT VDW BOUNDARY MISC KINETIC TOTAL TEMP POTENTIAL TOTAL3 TEMPAVG PRESSURE GPRESSURE VOLUME PRESSAVG GPRESSAVG
ENERGY: 100000 0.0000 0.0000 0.0000 0.0000 -14181.3047 2417.8681 0.0000 0.0000 174.5769 -11588.8597 30.0654 -11763.4366 -11588.4337 30.0654 -331.7918 -273.7028 28681.1681 -331.7918 -273.7028
ENERGY: 200000 0.0000 0.0000 0.0000 0.0000 -14170.3093 2475.8662 0.0000 0.0000 345.7161 -11348.7270 59.5388 -11694.4431 -11347.8616 59.9324 505.0619 568.6192 28372.0097 2.8277 2.7695
TCL: Running 100000 steps at 90 kelvin.
TCL: Setting parameter langevinTemp to 90
TCL: Running for 100000 steps
ETITLE: TS BOND ANGLE DIHED IMPRP ELECT VDW BOUNDARY MISC KINETIC TOTAL TEMP POTENTIAL TOTAL3 TEMPAVG PRESSURE GPRESSURE VOLUME PRESSAVG GPRESSAVG
ENERGY: 200000 0.0000 0.0000 0.0000 0.0000 -14170.3093 2475.8662 0.0000 0.0000 345.5456 -11348.8975 59.5094 -11694.4431 -11348.0849 59.5094 508.0704 568.6211 28372.0097 508.0704 568.6211
ENERGY: 300000 0.0000 0.0000 0.0000 0.0000 -13959.0480 2338.9066 0.0000 0.0000 522.2736 -11097.8677 89.9453 -11620.1413 -11095.5959 89.9752 -681.5504 -622.7654 29050.5828 4.6534 4.6579
TCL: Running 100000 steps at 120 kelvin.
TCL: Setting parameter langevinTemp to 120
TCL: Running for 100000 steps
ETITLE: TS BOND ANGLE DIHED IMPRP ELECT VDW BOUNDARY MISC KINETIC TOTAL TEMP POTENTIAL TOTAL3 TEMPAVG PRESSURE GPRESSURE VOLUME PRESSAVG GPRESSAVG
ENERGY: 300000 0.0000 0.0000 0.0000 0.0000 -13959.0480 2338.9066 0.0000 0.0000 522.0150 -11098.1263 89.9007 -11620.1413 -11097.0316 89.9007 -681.9892 -622.6207 29050.5828 -681.9892 -622.6207
ENERGY: 400000 0.0000 0.0000 0.0000 0.0000 -13781.6916 2288.3481 0.0000 0.0000 692.8882 -10800.4553 119.3283 -11493.3435 -10798.7674 119.7638 -541.9645 -502.1236 28926.8069 3.2945 3.3422
TCL: Running 100000 steps at 150 kelvin.
TCL: Setting parameter langevinTemp to 150
TCL: Running for 100000 steps
ETITLE: TS BOND ANGLE DIHED IMPRP ELECT VDW BOUNDARY MISC KINETIC TOTAL TEMP POTENTIAL TOTAL3 TEMPAVG PRESSURE GPRESSURE VOLUME PRESSAVG GPRESSAVG
ENERGY: 400000 0.0000 0.0000 0.0000 0.0000 -13781.6916 2288.3481 0.0000 0.0000 692.5417 -10800.8018 119.2686 -11493.3435 -10799.0442 119.2686 -544.2336 -503.0439 28926.8069 -544.2336 -503.0439
ENERGY: 500000 0.0000 0.0000 0.0000 0.0000 -13517.7562 2226.8882 0.0000 0.0000 877.1706 -10413.6974 151.0651 -11290.8681 -10412.2486 150.1401 85.9916 100.0394 28652.9075 3.2315 3.2831
TCL: Running 100000 steps at 180 kelvin.
TCL: Setting parameter langevinTemp to 180
TCL: Running for 100000 steps
ETITLE: TS BOND ANGLE DIHED IMPRP ELECT VDW BOUNDARY MISC KINETIC TOTAL TEMP POTENTIAL TOTAL3 TEMPAVG PRESSURE GPRESSURE VOLUME PRESSAVG GPRESSAVG
ENERGY: 500000 0.0000 0.0000 0.0000 0.0000 -13517.7562 2226.8882 0.0000 0.0000 876.7347 -10414.1334 150.9901 -11290.8681 -10412.2863 150.9901 39.8316 100.8063 28652.9075 39.8316 100.8063
ENERGY: 600000 0.0000 0.0000 0.0000 0.0000 -13069.9662 2076.9406 0.0000 0.0000 1023.0527 -9969.9729 176.1888 -10993.0257 -9965.9219 180.2776 -325.9282 -241.9426 28841.4203 4.4178 4.3773
TCL: Running 100000 steps at 210 kelvin.
TCL: Setting parameter langevinTemp to 210
TCL: Running for 100000 steps
ETITLE: TS BOND ANGLE DIHED IMPRP ELECT VDW BOUNDARY MISC KINETIC TOTAL TEMP POTENTIAL TOTAL3 TEMPAVG PRESSURE GPRESSURE VOLUME PRESSAVG GPRESSAVG
ENERGY: 600000 0.0000 0.0000 0.0000 0.0000 -13069.9662 2076.9406 0.0000 0.0000 1022.5461 -9970.4796 176.1015 -10993.0257 -9968.6114 176.1015 -297.9173 -239.3836 28841.4203 -297.9173 -239.3836
ENERGY: 700000 0.0000 0.0000 0.0000 0.0000 -12459.9086 1870.3135 0.0000 0.0000 1249.8292 -9339.7658 215.2439 -10589.5951 -9337.0336 209.7233 -255.8674 -144.8942 28670.0234 3.6100 3.5592
TCL: Running 100000 steps at 240 kelvin.
TCL: Setting parameter langevinTemp to 240
TCL: Running for 100000 steps
ETITLE: TS BOND ANGLE DIHED IMPRP ELECT VDW BOUNDARY MISC KINETIC TOTAL TEMP POTENTIAL TOTAL3 TEMPAVG PRESSURE GPRESSURE VOLUME PRESSAVG GPRESSAVG
ENERGY: 700000 0.0000 0.0000 0.0000 0.0000 -12459.9086 1870.3135 0.0000 0.0000 1249.2268 -9340.3682 215.1402 -10589.5951 -9338.6031 215.1402 -217.3963 -144.9237 28670.0234 -217.3963 -144.9237
ENERGY: 800000 0.0000 0.0000 0.0000 0.0000 -11788.1855 1663.9041 0.0000 0.0000 1365.5735 -8758.7079 235.1772 -10124.2815 -8755.4198 239.6252 -512.5376 -380.1744 28949.6035 4.5725 4.5818
TCL: Running 100000 steps at 270 kelvin.
TCL: Setting parameter langevinTemp to 270
TCL: Running for 100000 steps
ETITLE: TS BOND ANGLE DIHED IMPRP ELECT VDW BOUNDARY MISC KINETIC TOTAL TEMP POTENTIAL TOTAL3 TEMPAVG PRESSURE GPRESSURE VOLUME PRESSAVG GPRESSAVG
ENERGY: 800000 0.0000 0.0000 0.0000 0.0000 -11788.1855 1663.9041 0.0000 0.0000 1364.9018 -8759.3797 235.0615 -10124.2815 -8757.3395 235.0615 -466.8523 -379.0903 28949.6035 -466.8523 -379.0903
ENERGY: 900000 0.0000 0.0000 0.0000 0.0000 -11189.1511 1555.6937 0.0000 0.0000 1596.0668 -8037.3906 274.8725 -9633.4574 -8034.7667 270.4556 38.1855 110.9966 29687.1423 2.1879 2.0337
TCL: Running 1000000 steps at 300 kelvin.
TCL: Setting parameter langevinTemp to 300
TCL: Running for 1000000 steps
ETITLE: TS BOND ANGLE DIHED IMPRP ELECT VDW BOUNDARY MISC KINETIC TOTAL TEMP POTENTIAL TOTAL3 TEMPAVG PRESSURE GPRESSURE VOLUME PRESSAVG GPRESSAVG
ENERGY: 900000 0.0000 0.0000 0.0000 0.0000 -11189.1511 1555.6937 0.0000 0.0000 1595.3001 -8038.1572 274.7404 -9633.4574 -8036.0881 274.7404 19.7684 110.7599 29687.1423 19.7684 110.7599
ENERGY: 1100000 0.0000 0.0000 0.0000 0.0000 -10644.0945 1361.9496 0.0000 0.0000 1731.5926 -7550.5522 298.2125 -9282.1448 -7547.0210 300.6183 -587.3429 -503.4463 30541.4352 3.0524 3.0454
ENERGY: 1300000 0.0000 0.0000 0.0000 0.0000 -10696.4813 1475.7313 0.0000 0.0000 1753.8665 -7466.8835 302.0485 -9220.7500 -7466.0609 300.2445 603.8081 695.9408 30108.0346 4.4295 4.2052
ENERGY: 1500000 0.0000 0.0000 0.0000 0.0000 -10758.9957 1442.1540 0.0000 0.0000 1731.9924 -7584.8493 298.2814 -9316.8417 -7580.7377 300.3981 240.0720 392.9218 29646.7206 2.3102 2.2945
ENERGY: 1700000 0.0000 0.0000 0.0000 0.0000 -10821.7918 1492.2999 0.0000 0.0000 1682.7987 -7646.6932 289.8093 -9329.4919 -7643.7548 300.1229 724.0674 832.3563 29462.4351 2.6248 2.7022
ENERGY: 1900000 0.0000 0.0000 0.0000 0.0000 -10660.7683 1424.9012 0.0000 0.0000 1777.3657 -7458.5015 306.0955 -9235.8672 -7455.1891 300.6030 132.6636 182.0152 30409.7446 2.9162 2.8657
TCL: Exiting due to exit command.
