Info: SIMULATION PARAMETERS:
Info: TIMESTEP               2
Info: NUMBER OF STEPS        0
Info: STEPS PER CYCLE        10
Info: PERIODIC CELL BASIS 1  36.281 0 0
Info: PERIODIC CELL BASIS 2  0 35.779 0
Info: PERIODIC CELL BASIS 3  0 0 34.471
Info: PERIODIC CELL CENTER   0 0 0
Info: WRAPPING WATERS AROUND PERIODIC BOUNDARIES ON OUTPUT.
Info: WRAPPING ALL CLUSTERS AROUND PERIODIC BOUNDARIES ON OUTPUT.
Info: FIRST LDB TIMESTEP     50
Info: LAST LDB TIMESTEP     -1
Info: HOM BACKGROUND SCALING 1
Info: PME BACKGROUND SCALING 1
Info: MIN ATOMS PER PATCH    40
Info: EMPTY PATCH LOAD       40 ATOMS
Info: INITIAL TEMPERATURE    300
Info: CENTER OF MASS MOVING INITIALLY? NO
Info: DIELECTRIC             1
Info: EXCLUDE                SCALED ONE-FOUR
Info: 1-4 ELECTROSTATICS SCALED BY 0.833333
Info: MODIFIED 1-4 VDW PARAMETERS WILL BE USED
Info: DCD FILENAME           mobley_210639_equil.dcd
Info: DCD FREQUENCY          100000
Info: DCD FIRST STEP         100000
Info: DCD FILE WILL CONTAIN UNIT CELL DATA
Info: XST FILENAME           mobley_210639_equil.xst
Info: XST FREQUENCY          100000
Info: NO VELOCITY DCD OUTPUT
Info: NO FORCE DCD OUTPUT
Info: OUTPUT FILENAME        mobley_210639_equil
Info: BINARY OUTPUT FILES WILL BE USED
Info: RESTART FILENAME       mobley_210639_equil.restart
Info: RESTART FREQUENCY      100000
Info: BINARY RESTART FILES WILL BE USED
Info: CUTOFF                 9
Info: PAIRLIST DISTANCE      11
Info: PAIRLIST SHRINK RATE   0.01
Info: PAIRLIST GROW RATE     0.01
Info: PAIRLIST TRIGGER       0.3
Info: PAIRLISTS PER CYCLE    2
Info: PAIRLISTS ENABLED
Info: MARGIN                 8
Info: HYDROGEN GROUP CUTOFF  2.5
Info: PATCH DIMENSION        21.5
Info: ENERGY OUTPUT STEPS    100000
Info: ENERGY EVALUATION STEPS    100000
Info: OUTPUT ENERGY PRECISION 4
Info: CROSSTERM ENERGY INCLUDED IN DIHEDRAL
Info: TIMING OUTPUT STEPS    1000000
Info: PRESSURE OUTPUT STEPS  100000
Info: FIXED ATOMS ACTIVE
Info: LANGEVIN DYNAMICS ACTIVE
Info: LANGEVIN TEMPERATURE   30
Info: LANGEVIN USING BBK INTEGRATOR
Info: LANGEVIN DAMPING COEFFICIENT IS 1 INVERSE PS
Info: LANGEVIN DYNAMICS APPLIED TO HYDROGENS
Info: LANGEVIN PISTON PRESSURE CONTROL ACTIVE
Info:        TARGET PRESSURE IS 1.01325 BAR
Info:     OSCILLATION PERIOD IS 50 FS
Info:             DECAY TIME IS 25 FS
Info:     PISTON TEMPERATURE IS 300 K
Info:       PRESSURE CONTROL IS GROUP-BASED
Info:    INITIAL STRAIN RATE IS 0 0 0
Info:       CELL FLUCTUATION IS ISOTROPIC
Info: PARTICLE MESH EWALD (PME) ACTIVE
Info: PME TOLERANCE               1e-06
Info: PME EWALD COEFFICIENT       0.348832
Info: PME INTERPOLATION ORDER     4
Info: PME GRID DIMENSIONS         40 36 36
Info: PME MAXIMUM GRID SPACING    1
Info: FULL ELECTROSTATIC EVALUATION FREQUENCY      2
Info: USING VERLET I (r-RESPA) MTS SCHEME.
Info: C1 SPLITTING OF LONG RANGE ELECTROSTATICS
Info: PLACING ATOMS IN PATCHES BY HYDROGEN GROUPS
Info: RIGID BONDS TO HYDROGEN : ALL
Info:         ERROR TOLERANCE : 1e-08
Info:          MAX ITERATIONS : 100
Info: RIGID WATER USING SETTLE ALGORITHM
Info: RANDOM NUMBER SEED     1743685392
Info: USE HYDROGEN BONDS?    NO
Info: Using AMBER format force field!
Info: AMBER PARM FILE        mobley_210639.prmtop
Info: COORDINATE PDB         mobley_210639.pdb
Info: Exclusions will be read from PARM file!
Info: SCNB (VDW SCALING)     2
Info: USING ARITHMETIC MEAN TO COMBINE L-J SIGMA PARAMETERS
Info: BINARY COORDINATES     mobley_210639_min.coor
Info: SUMMARY OF PARAMETERS:
Info: 6 BONDS
Info: 6 ANGLES
Info:   6 HARMONIC
Info:   0 COSINE-BASED
Info: 2 DIHEDRAL
Info: 0 IMPROPER
Info: 0 CROSSTERM
Info: 0 VDW
Info: 21 VDW_PAIRS
Info: 0 NBTHOLE_PAIRS
Info: STRUCTURE SUMMARY:
Info: 2933 ATOMS
Info: 2932 BONDS
Info: 18 ANGLES
Info: 18 DIHEDRALS
Info: 0 IMPROPERS
Info: 0 CROSSTERMS
Info: 2968 EXCLUSIONS
Info: 11 FIXED ATOMS
Info: 2929 RIGID BONDS
Info: 7 RIGID BONDS BETWEEN FIXED ATOMS
Info: 5844 DEGREES OF FREEDOM
Info: 978 HYDROGEN GROUPS
Info: 4 ATOMS IN LARGEST HYDROGEN GROUP
Info: 978 MIGRATION GROUPS
Info: 4 ATOMS IN LARGEST MIGRATION GROUP
Info: 4 HYDROGEN GROUPS WITH ALL ATOMS FIXED
Info: TOTAL MASS = 17717.6 amu
Info: TOTAL CHARGE = -7.45058e-09 e
Info: MASS DENSITY = 0.65751 g/cm^3
Info: ATOM DENSITY = 0.0655467 atoms/A^3
Info: ADDED 0 IMPLICIT EXCLUSIONS
Info: NONBONDED TABLE R-SQUARED SPACING: 0.0625
Info: NONBONDED TABLE SIZE: 705 POINTS
Info: REMOVING COM VELOCITY -0.13745 0.0771044 -0.150137
TCL: Running for 100000 steps
ETITLE: TS BOND ANGLE DIHED IMPRP ELECT VDW BOUNDARY MISC KINETIC TOTAL TEMP POTENTIAL TOTAL3 TEMPAVG PRESSURE GPRESSURE VOLUME PRESSAVG GPRESSAVG
ENERGY: 0 0.0000 0.0000 0.0000 0.0000 -13556.4855 2389.4637 0.0000 0.0000 1735.8540 -9431.1679 298.9464 -11167.0218 -9430.8419 298.9464 564.5158 592.8709 44746.7327 564.5158 592.8709
ENERGY: 100000 0.0000 0.0000 0.0000 0.0000 -14147.0017 2471.0662 0.0000 0.0000 174.9597 -11500.9759 30.1313 -11675.9356 -11500.5914 30.8562 -100.2248 -52.8044 29363.0264 3.6747 3.6852
TCL: Running 100000 steps at 60 kelvin.
TCL: Setting parameter langevinTemp to 60
TCL: Running for 100000 steps
ETITLE: TS BOND ANGLE DIHED IMPRP ELECT VDW BOUNDARY MISC KINETIC TOTAL TEMP POTENTIAL TOTAL3 TEMPAVG PRESSURE GPRESSURE VOLUME PRESSAVG GPRESSAVG
ENERGY: 100000 0.0000 0.0000 0.0000 0.0000 -14147.0017 2471.0662 0.0000 0.0000 174.8707 -11501.0649 30.1160 -11675.9356 -11500.6602 30.1160 -119.3566 -52.8250 29363.0264 -119.3566 -52.8250
ENERGY: 200000 0.0000 0.0000 0.0000 0.0000 -14241.8263 2608.8362 0.0000 0.0000 353.7440 -11279.2461 60.9213 -11632.9901 -11278.0386 59.9679 1429.7363 1481.2310 28734.6351 3.6628 3.5658
TCL: Running 100000 steps at 90 kelvin.
TCL: Setting parameter langevinTemp to 90
TCL: Running for 100000 steps
ETITLE: TS BOND ANGLE DIHED IMPRP ELECT VDW BOUNDARY MISC KINETIC TOTAL TEMP POTENTIAL TOTAL3 TEMPAVG PRESSURE GPRESSURE VOLUME PRESSAVG GPRESSAVG
ENERGY: 200000 0.0000 0.0000 0.0000 0.0000 -14241.8263 2608.8362 0.0000 0.0000 353.5719 -11279.4182 60.8917 -11632.9901 -11278.7438 60.8917 1437.4653 1481.3713 28734.6351 1437.4653 1481.3713
ENERGY: 300000 0.0000 0.0000 0.0000 0.0000 -13847.7590 2376.5546 0.0000 0.0000 515.4292 -10955.7752 88.7665 -11471.2044 -10954.8429 89.8665 -100.3566 -45.3033 29345.4968 3.6747 3.6675
TCL: Running 100000 steps at 120 kelvin.
TCL: Setting parameter langevinTemp to 120
TCL: Running for 100000 steps
ETITLE: TS BOND ANGLE DIHED IMPRP ELECT VDW BOUNDARY MISC KINETIC TOTAL TEMP POTENTIAL TOTAL3 TEMPAVG PRESSURE GPRESSURE VOLUME PRESSAVG GPRESSAVG
ENERGY: 300000 0.0000 0.0000 0.0000 0.0000 -13847.7590 2376.5546 0.0000 0.0000 515.1544 -10956.0500 88.7192 -11471.2044 -10955.2419 88.7192 -104.9581 -44.8913 29345.4968 -104.9581 -44.8913
ENERGY: 400000 0.0000 0.0000 0.0000 0.0000 -13740.2649 2352.7815 0.0000 0.0000 704.0923 -10683.3911 121.2578 -11387.4834 -10680.7000 119.8005 349.4095 410.2732 28782.4919 4.0030 4.0372
TCL: Running 100000 steps at 150 kelvin.
TCL: Setting parameter langevinTemp to 150
TCL: Running for 100000 steps
ETITLE: TS BOND ANGLE DIHED IMPRP ELECT VDW BOUNDARY MISC KINETIC TOTAL TEMP POTENTIAL TOTAL3 TEMPAVG PRESSURE GPRESSURE VOLUME PRESSAVG GPRESSAVG
ENERGY: 400000 0.0000 0.0000 0.0000 0.0000 -13740.2649 2352.7815 0.0000 0.0000 703.7637 -10683.7197 121.2012 -11387.4834 -10682.3817 121.2012 351.2421 411.4603 28782.4919 351.2421 411.4603
ENERGY: 500000 0.0000 0.0000 0.0000 0.0000 -13501.8030 2288.0148 0.0000 0.0000 904.4576 -10309.3306 155.7645 -11213.7882 -10306.2427 150.2379 215.6314 299.6742 29201.8141 3.8215 3.8089
TCL: Running 100000 steps at 180 kelvin.
TCL: Setting parameter langevinTemp to 180
TCL: Running for 100000 steps
ETITLE: TS BOND ANGLE DIHED IMPRP ELECT VDW BOUNDARY MISC KINETIC TOTAL TEMP POTENTIAL TOTAL3 TEMPAVG PRESSURE GPRESSURE VOLUME PRESSAVG GPRESSAVG
ENERGY: 500000 0.0000 0.0000 0.0000 0.0000 -13501.8030 2288.0148 0.0000 0.0000 904.0121 -10309.7761 155.6877 -11213.7882 -10308.3442 155.6877 251.0916 301.1138 29201.8141 251.0916 301.1138
ENERGY: 600000 0.0000 0.0000 0.0000 0.0000 -13052.2600 2082.5937 0.0000 0.0000 1039.0137 -9930.6527 178.9375 -10969.6664 -9927.7677 180.2254 -625.5961 -569.5208 29123.6522 4.8369 4.9013
TCL: Running 100000 steps at 210 kelvin.
TCL: Setting parameter langevinTemp to 210
TCL: Running for 100000 steps
ETITLE: TS BOND ANGLE DIHED IMPRP ELECT VDW BOUNDARY MISC KINETIC TOTAL TEMP POTENTIAL TOTAL3 TEMPAVG PRESSURE GPRESSURE VOLUME PRESSAVG GPRESSAVG
ENERGY: 600000 0.0000 0.0000 0.0000 0.0000 -13052.2600 2082.5937 0.0000 0.0000 1038.4976 -9931.1687 178.8487 -10969.6664 -9929.1081 178.8487 -628.7555 -569.8084 29123.6522 -628.7555 -569.8084
ENERGY: 700000 0.0000 0.0000 0.0000 0.0000 -12140.2716 1706.1113 0.0000 0.0000 1232.1190 -9202.0413 212.1939 -10434.1604 -9198.1240 209.5322 -1356.2943 -1263.3522 28792.8764 3.5395 3.5069
TCL: Running 100000 steps at 240 kelvin.
TCL: Setting parameter langevinTemp to 240
TCL: Running for 100000 steps
ETITLE: TS BOND ANGLE DIHED IMPRP ELECT VDW BOUNDARY MISC KINETIC TOTAL TEMP POTENTIAL TOTAL3 TEMPAVG PRESSURE GPRESSURE VOLUME PRESSAVG GPRESSAVG
ENERGY: 700000 0.0000 0.0000 0.0000 0.0000 -12140.2716 1706.1113 0.0000 0.0000 1231.4859 -9202.6744 212.0848 -10434.1604 -9200.6423 212.0848 -1353.9116 -1262.7583 28792.8764 -1353.9116 -1262.7583
ENERGY: 800000 0.0000 0.0000 0.0000 0.0000 -11716.6411 1713.2439 0.0000 0.0000 1374.2702 -8629.1269 236.6750 -10003.3972 -8626.2318 239.8938 -4.9343 131.1240 28903.2050 3.1916 3.0018
TCL: Running 100000 steps at 270 kelvin.
TCL: Setting parameter langevinTemp to 270
TCL: Running for 100000 steps
ETITLE: TS BOND ANGLE DIHED IMPRP ELECT VDW BOUNDARY MISC KINETIC TOTAL TEMP POTENTIAL TOTAL3 TEMPAVG PRESSURE GPRESSURE VOLUME PRESSAVG GPRESSAVG
ENERGY: 800000 0.0000 0.0000 0.0000 0.0000 -11716.6411 1713.2439 0.0000 0.0000 1373.5610 -8629.8362 236.5528 -10003.3972 -8627.6914 236.5528 45.7622 129.7740 28903.2050 45.7622 129.7740
ENERGY: 900000 0.0000 0.0000 0.0000 0.0000 -11086.2910 1518.1959 0.0000 0.0000 1553.9969 -8014.0982 267.6272 -9568.0951 -8010.7629 269.5816 -149.2025 -115.5715 29628.0869 2.7914 2.7169
TCL: Running 1000000 steps at 300 kelvin.
TCL: Setting parameter langevinTemp to 300
TCL: Running for 1000000 steps
ETITLE: TS BOND ANGLE DIHED IMPRP ELECT VDW BOUNDARY MISC KINETIC TOTAL TEMP POTENTIAL TOTAL3 TEMPAVG PRESSURE GPRESSURE VOLUME PRESSAVG GPRESSAVG
ENERGY: 900000 0.0000 0.0000 0.0000 0.0000 -11086.2910 1518.1959 0.0000 0.0000 1553.2040 -8014.8911 267.4907 -9568.0951 -8012.9069 267.4907 -198.8646 -116.6206 29628.0869 -198.8646 -116.6206
ENERGY: 1100000 0.0000 0.0000 0.0000 0.0000 -10611.4544 1387.2533 0.0000 0.0000 1792.8790 -7431.3221 308.7672 -9224.2011 -7429.3595 300.7710 -207.4710 -192.7547 30246.7475 1.8606 2.0262
ENERGY: 1300000 0.0000 0.0000 0.0000 0.0000 -10513.6229 1368.4381 0.0000 0.0000 1734.7739 -7410.4109 298.7604 -9145.1848 -7408.0937 300.1972 -480.6054 -348.6827 30760.1413 3.3431 3.5520
ENERGY: 1500000 0.0000 0.0000 0.0000 0.0000 -10628.1273 1415.7242 0.0000 0.0000 1726.5744 -7485.8288 297.3483 -9212.4031 -7481.3954 300.2102 -113.5541 38.5966 30297.9451 2.2530 2.5384
ENERGY: 1700000 0.0000 0.0000 0.0000 0.0000 -10627.8401 1440.5450 0.0000 0.0000 1709.3494 -7477.9457 294.3818 -9187.2951 -7474.6847 300.3670 119.9174 208.2922 30130.9757 3.8512 4.0620
ENERGY: 1900000 0.0000 0.0000 0.0000 0.0000 -10678.0805 1427.1673 0.0000 0.0000 1735.5563 -7515.3569 298.8952 -9250.9131 -7512.8909 299.7844 129.2346 184.5654 29958.6248 1.6633 1.8584
TCL: Exiting due to exit command.
