Info: SIMULATION PARAMETERS:
Info: TIMESTEP               2
Info: NUMBER OF STEPS        0
Info: STEPS PER CYCLE        10
Info: PERIODIC CELL BASIS 1  34.986 0 0
Info: PERIODIC CELL BASIS 2  0 35.267 0
Info: PERIODIC CELL BASIS 3  0 0 35.723
Info: PERIODIC CELL CENTER   0 0 0
Info: WRAPPING WATERS AROUND PERIODIC BOUNDARIES ON OUTPUT.
Info: WRAPPING ALL CLUSTERS AROUND PERIODIC BOUNDARIES ON OUTPUT.
Info: FIRST LDB TIMESTEP     50
Info: LAST LDB TIMESTEP     -1
Info: HOM BACKGROUND SCALING 1
Info: PME BACKGROUND SCALING 1
Info: MIN ATOMS PER PATCH    40
Info: EMPTY PATCH LOAD       40 ATOMS
Info: INITIAL TEMPERATURE    300
Info: CENTER OF MASS MOVING INITIALLY? NO
Info: DIELECTRIC             1
Info: EXCLUDE                SCALED ONE-FOUR
Info: 1-4 ELECTROSTATICS SCALED BY 0.833333
Info: MODIFIED 1-4 VDW PARAMETERS WILL BE USED
Info: DCD FILENAME           mobley_1278715_equil.dcd
Info: DCD FREQUENCY          100000
Info: DCD FIRST STEP         100000
Info: DCD FILE WILL CONTAIN UNIT CELL DATA
Info: XST FILENAME           mobley_1278715_equil.xst
Info: XST FREQUENCY          100000
Info: NO VELOCITY DCD OUTPUT
Info: NO FORCE DCD OUTPUT
Info: OUTPUT FILENAME        mobley_1278715_equil
Info: BINARY OUTPUT FILES WILL BE USED
Info: RESTART FILENAME       mobley_1278715_equil.restart
Info: RESTART FREQUENCY      100000
Info: BINARY RESTART FILES WILL BE USED
Info: CUTOFF                 9
Info: PAIRLIST DISTANCE      11
Info: PAIRLIST SHRINK RATE   0.01
Info: PAIRLIST GROW RATE     0.01
Info: PAIRLIST TRIGGER       0.3
Info: PAIRLISTS PER CYCLE    2
Info: PAIRLISTS ENABLED
Info: MARGIN                 8
Info: HYDROGEN GROUP CUTOFF  2.5
Info: PATCH DIMENSION        21.5
Info: ENERGY OUTPUT STEPS    100000
Info: ENERGY EVALUATION STEPS    100000
Info: OUTPUT ENERGY PRECISION 4
Info: CROSSTERM ENERGY INCLUDED IN DIHEDRAL
Info: TIMING OUTPUT STEPS    1000000
Info: PRESSURE OUTPUT STEPS  100000
Info: FIXED ATOMS ACTIVE
Info: LANGEVIN DYNAMICS ACTIVE
Info: LANGEVIN TEMPERATURE   30
Info: LANGEVIN USING BBK INTEGRATOR
Info: LANGEVIN DAMPING COEFFICIENT IS 1 INVERSE PS
Info: LANGEVIN DYNAMICS APPLIED TO HYDROGENS
Info: LANGEVIN PISTON PRESSURE CONTROL ACTIVE
Info:        TARGET PRESSURE IS 1.01325 BAR
Info:     OSCILLATION PERIOD IS 50 FS
Info:             DECAY TIME IS 25 FS
Info:     PISTON TEMPERATURE IS 300 K
Info:       PRESSURE CONTROL IS GROUP-BASED
Info:    INITIAL STRAIN RATE IS 0 0 0
Info:       CELL FLUCTUATION IS ISOTROPIC
Info: PARTICLE MESH EWALD (PME) ACTIVE
Info: PME TOLERANCE               1e-06
Info: PME EWALD COEFFICIENT       0.348832
Info: PME INTERPOLATION ORDER     4
Info: PME GRID DIMENSIONS         36 36 36
Info: PME MAXIMUM GRID SPACING    1
Info: FULL ELECTROSTATIC EVALUATION FREQUENCY      2
Info: USING VERLET I (r-RESPA) MTS SCHEME.
Info: C1 SPLITTING OF LONG RANGE ELECTROSTATICS
Info: PLACING ATOMS IN PATCHES BY HYDROGEN GROUPS
Info: RIGID BONDS TO HYDROGEN : ALL
Info:         ERROR TOLERANCE : 1e-08
Info:          MAX ITERATIONS : 100
Info: RIGID WATER USING SETTLE ALGORITHM
Info: RANDOM NUMBER SEED     1744676094
Info: USE HYDROGEN BONDS?    NO
Info: Using AMBER format force field!
Info: AMBER PARM FILE        mobley_1278715.prmtop
Info: COORDINATE PDB         mobley_1278715.pdb
Info: Exclusions will be read from PARM file!
Info: SCNB (VDW SCALING)     2
Info: USING ARITHMETIC MEAN TO COMBINE L-J SIGMA PARAMETERS
Info: BINARY COORDINATES     mobley_1278715_min.coor
Info: SUMMARY OF PARAMETERS:
Info: 4 BONDS
Info: 2 ANGLES
Info:   2 HARMONIC
Info:   0 COSINE-BASED
Info: 2 DIHEDRAL
Info: 0 IMPROPER
Info: 0 CROSSTERM
Info: 0 VDW
Info: 10 VDW_PAIRS
Info: 0 NBTHOLE_PAIRS
Info: STRUCTURE SUMMARY:
Info: 2963 ATOMS
Info: 2962 BONDS
Info: 12 ANGLES
Info: 18 DIHEDRALS
Info: 0 IMPROPERS
Info: 0 CROSSTERMS
Info: 2983 EXCLUSIONS
Info: 8 FIXED ATOMS
Info: 2955 RIGID BONDS
Info: 0 RIGID BONDS BETWEEN FIXED ATOMS
Info: 5910 DEGREES OF FREEDOM
Info: 993 HYDROGEN GROUPS
Info: 3 ATOMS IN LARGEST HYDROGEN GROUP
Info: 993 MIGRATION GROUPS
Info: 3 ATOMS IN LARGEST MIGRATION GROUP
Info: 8 HYDROGEN GROUPS WITH ALL ATOMS FIXED
Info: TOTAL MASS = 17982.5 amu
Info: TOTAL CHARGE = -0.000199974 e
Info: MASS DENSITY = 0.677483 g/cm^3
Info: ATOM DENSITY = 0.0672235 atoms/A^3
Info: ADDED 0 IMPLICIT EXCLUSIONS
Info: NONBONDED TABLE R-SQUARED SPACING: 0.0625
Info: NONBONDED TABLE SIZE: 705 POINTS
Info: REMOVING COM VELOCITY 0.0292997 -0.115214 -0.275832
TCL: Running for 100000 steps
ETITLE: TS BOND ANGLE DIHED IMPRP ELECT VDW BOUNDARY MISC KINETIC TOTAL TEMP POTENTIAL TOTAL3 TEMPAVG PRESSURE GPRESSURE VOLUME PRESSAVG GPRESSAVG
ENERGY: 0 0.0000 0.0000 0.0000 0.0000 -13750.9668 2424.7180 0.0000 0.0000 1762.8528 -9563.3960 300.2057 -11326.2488 -9563.0320 300.2057 513.8308 544.7676 44076.8686 513.8308 544.7676
ENERGY: 100000 0.0000 0.0000 0.0000 0.0000 -14327.2791 2521.0785 0.0000 0.0000 178.3814 -11627.8192 30.3775 -11806.2006 -11627.3028 30.8666 192.5894 238.9415 29603.5657 2.6846 2.6816
TCL: Running 100000 steps at 60 kelvin.
TCL: Setting parameter langevinTemp to 60
TCL: Running for 100000 steps
ETITLE: TS BOND ANGLE DIHED IMPRP ELECT VDW BOUNDARY MISC KINETIC TOTAL TEMP POTENTIAL TOTAL3 TEMPAVG PRESSURE GPRESSURE VOLUME PRESSAVG GPRESSAVG
ENERGY: 100000 0.0000 0.0000 0.0000 0.0000 -14327.2791 2521.0785 0.0000 0.0000 178.2956 -11627.9050 30.3629 -11806.2006 -11627.5653 30.3629 193.9841 239.0396 29603.5657 193.9841 239.0396
ENERGY: 200000 0.0000 0.0000 0.0000 0.0000 -14148.0539 2394.6106 0.0000 0.0000 343.0244 -11410.4189 58.4155 -11753.4433 -11409.4585 59.9694 -577.4943 -535.5805 29522.9335 3.5024 3.5168
TCL: Running 100000 steps at 90 kelvin.
TCL: Setting parameter langevinTemp to 90
TCL: Running for 100000 steps
ETITLE: TS BOND ANGLE DIHED IMPRP ELECT VDW BOUNDARY MISC KINETIC TOTAL TEMP POTENTIAL TOTAL3 TEMPAVG PRESSURE GPRESSURE VOLUME PRESSAVG GPRESSAVG
ENERGY: 200000 0.0000 0.0000 0.0000 0.0000 -14148.0539 2394.6106 0.0000 0.0000 342.8428 -11410.6005 58.3846 -11753.4433 -11409.9363 58.3846 -588.1644 -535.6566 29522.9335 -588.1644 -535.6566
ENERGY: 300000 0.0000 0.0000 0.0000 0.0000 -14042.6811 2402.2582 0.0000 0.0000 541.5730 -11098.8499 92.2274 -11640.4228 -11097.1093 89.8456 169.6344 229.1853 28976.5540 3.3112 3.4162
TCL: Running 100000 steps at 120 kelvin.
TCL: Setting parameter langevinTemp to 120
TCL: Running for 100000 steps
ETITLE: TS BOND ANGLE DIHED IMPRP ELECT VDW BOUNDARY MISC KINETIC TOTAL TEMP POTENTIAL TOTAL3 TEMPAVG PRESSURE GPRESSURE VOLUME PRESSAVG GPRESSAVG
ENERGY: 300000 0.0000 0.0000 0.0000 0.0000 -14042.6811 2402.2582 0.0000 0.0000 541.3117 -11099.1111 92.1829 -11640.4228 -11098.1866 92.1829 173.3460 229.7380 28976.5540 173.3460 229.7380
ENERGY: 400000 0.0000 0.0000 0.0000 0.0000 -13813.1826 2293.1612 0.0000 0.0000 710.7846 -10809.2369 121.0433 -11520.0215 -10807.0383 120.0540 -536.5620 -466.4436 29280.9449 3.9601 3.8743
TCL: Running 100000 steps at 150 kelvin.
TCL: Setting parameter langevinTemp to 150
TCL: Running for 100000 steps
ETITLE: TS BOND ANGLE DIHED IMPRP ELECT VDW BOUNDARY MISC KINETIC TOTAL TEMP POTENTIAL TOTAL3 TEMPAVG PRESSURE GPRESSURE VOLUME PRESSAVG GPRESSAVG
ENERGY: 400000 0.0000 0.0000 0.0000 0.0000 -13813.1826 2293.1612 0.0000 0.0000 710.4426 -10809.5788 120.9851 -11520.0215 -10807.8156 120.9851 -516.9578 -466.1152 29280.9449 -516.9578 -466.1152
ENERGY: 500000 0.0000 0.0000 0.0000 0.0000 -13590.5632 2244.6225 0.0000 0.0000 904.5547 -10441.3860 154.0415 -11345.9407 -10438.4747 149.8991 -259.3252 -159.9687 29247.1435 2.4989 2.4436
TCL: Running 100000 steps at 180 kelvin.
TCL: Setting parameter langevinTemp to 180
TCL: Running for 100000 steps
ETITLE: TS BOND ANGLE DIHED IMPRP ELECT VDW BOUNDARY MISC KINETIC TOTAL TEMP POTENTIAL TOTAL3 TEMPAVG PRESSURE GPRESSURE VOLUME PRESSAVG GPRESSAVG
ENERGY: 500000 0.0000 0.0000 0.0000 0.0000 -13590.5632 2244.6225 0.0000 0.0000 904.1204 -10441.8203 153.9675 -11345.9407 -10439.9638 153.9675 -223.4740 -159.7910 29247.1435 -223.4740 -159.7910
ENERGY: 600000 0.0000 0.0000 0.0000 0.0000 -13151.9234 2108.6602 0.0000 0.0000 1081.5576 -9961.7056 184.1843 -11043.2632 -9958.4123 180.0165 -36.9785 41.2027 28995.4318 4.4812 4.2616
TCL: Running 100000 steps at 210 kelvin.
TCL: Setting parameter langevinTemp to 210
TCL: Running for 100000 steps
ETITLE: TS BOND ANGLE DIHED IMPRP ELECT VDW BOUNDARY MISC KINETIC TOTAL TEMP POTENTIAL TOTAL3 TEMPAVG PRESSURE GPRESSURE VOLUME PRESSAVG GPRESSAVG
ENERGY: 600000 0.0000 0.0000 0.0000 0.0000 -13151.9234 2108.6602 0.0000 0.0000 1081.0112 -9962.2521 184.0912 -11043.2632 -9960.6209 184.0912 -30.8792 42.5590 28995.4318 -30.8792 42.5590
ENERGY: 700000 0.0000 0.0000 0.0000 0.0000 -12467.9430 1922.2633 0.0000 0.0000 1251.5319 -9294.1478 213.1301 -10545.6798 -9292.0474 210.3483 270.7122 399.4270 28984.1658 3.3186 3.2367
TCL: Running 100000 steps at 240 kelvin.
TCL: Setting parameter langevinTemp to 240
TCL: Running for 100000 steps
ETITLE: TS BOND ANGLE DIHED IMPRP ELECT VDW BOUNDARY MISC KINETIC TOTAL TEMP POTENTIAL TOTAL3 TEMPAVG PRESSURE GPRESSURE VOLUME PRESSAVG GPRESSAVG
ENERGY: 700000 0.0000 0.0000 0.0000 0.0000 -12467.9430 1922.2633 0.0000 0.0000 1250.9387 -9294.7411 213.0291 -10545.6797 -9293.0078 213.0291 312.1850 399.3735 28984.1658 312.1850 399.3735
ENERGY: 800000 0.0000 0.0000 0.0000 0.0000 -11961.9682 1808.4900 0.0000 0.0000 1414.2452 -8739.2329 240.8394 -10153.4781 -8738.5731 240.2382 715.2640 746.1093 29264.1789 3.0986 3.0679
TCL: Running 100000 steps at 270 kelvin.
TCL: Setting parameter langevinTemp to 270
TCL: Running for 100000 steps
ETITLE: TS BOND ANGLE DIHED IMPRP ELECT VDW BOUNDARY MISC KINETIC TOTAL TEMP POTENTIAL TOTAL3 TEMPAVG PRESSURE GPRESSURE VOLUME PRESSAVG GPRESSAVG
ENERGY: 800000 0.0000 0.0000 0.0000 0.0000 -11961.9682 1808.4900 0.0000 0.0000 1413.5508 -8739.9273 240.7212 -10153.4782 -8737.7184 240.7212 659.6228 743.8949 29264.1789 659.6228 743.8949
ENERGY: 900000 0.0000 0.0000 0.0000 0.0000 -11278.1505 1556.4288 0.0000 0.0000 1582.2962 -8139.4255 269.4578 -9721.7218 -8135.0923 269.9581 -328.9983 -241.7280 30069.1756 2.7869 2.9623
TCL: Running 1000000 steps at 300 kelvin.
TCL: Setting parameter langevinTemp to 300
TCL: Running for 1000000 steps
ETITLE: TS BOND ANGLE DIHED IMPRP ELECT VDW BOUNDARY MISC KINETIC TOTAL TEMP POTENTIAL TOTAL3 TEMPAVG PRESSURE GPRESSURE VOLUME PRESSAVG GPRESSAVG
ENERGY: 900000 0.0000 0.0000 0.0000 0.0000 -11278.1505 1556.4288 0.0000 0.0000 1581.4950 -8140.2268 269.3213 -9721.7218 -8137.6155 269.3213 -304.3839 -239.9856 30069.1756 -304.3839 -239.9856
ENERGY: 1100000 0.0000 0.0000 0.0000 0.0000 -10756.7110 1397.4406 0.0000 0.0000 1722.0497 -7637.2208 293.2571 -9359.2705 -7634.9042 300.5336 -397.4186 -304.3655 30519.3161 3.2017 3.2911
ENERGY: 1300000 0.0000 0.0000 0.0000 0.0000 -10831.9743 1430.7363 0.0000 0.0000 1747.2806 -7653.9574 297.5538 -9401.2380 -7649.7036 300.6624 -327.3932 -180.9395 30340.6132 3.4534 3.4915
ENERGY: 1500000 0.0000 0.0000 0.0000 0.0000 -10663.5426 1401.1927 0.0000 0.0000 1756.9753 -7505.3745 299.2048 -9262.3499 -7502.3827 300.3217 -130.7538 -71.2654 30784.3262 2.8240 2.7099
ENERGY: 1700000 0.0000 0.0000 0.0000 0.0000 -10725.3092 1369.1194 0.0000 0.0000 1806.3978 -7549.7921 307.6212 -9356.1898 -7542.9877 300.0302 -653.7867 -598.4881 30891.4232 2.5116 2.5685
ENERGY: 1900000 0.0000 0.0000 0.0000 0.0000 -10753.7036 1453.9923 0.0000 0.0000 1806.7698 -7492.9414 307.6846 -9299.7112 -7491.7112 299.9501 -97.2146 7.7235 31081.0483 2.6121 2.5991
TCL: Exiting due to exit command.
