Info: SIMULATION PARAMETERS:
Info: TIMESTEP               2
Info: NUMBER OF STEPS        0
Info: STEPS PER CYCLE        10
Info: PERIODIC CELL BASIS 1  39.456 0 0
Info: PERIODIC CELL BASIS 2  0 36.611 0
Info: PERIODIC CELL BASIS 3  0 0 31.061
Info: PERIODIC CELL CENTER   0 0 0
Info: WRAPPING WATERS AROUND PERIODIC BOUNDARIES ON OUTPUT.
Info: WRAPPING ALL CLUSTERS AROUND PERIODIC BOUNDARIES ON OUTPUT.
Info: FIRST LDB TIMESTEP     50
Info: LAST LDB TIMESTEP     -1
Info: HOM BACKGROUND SCALING 1
Info: PME BACKGROUND SCALING 1
Info: MIN ATOMS PER PATCH    40
Info: EMPTY PATCH LOAD       40 ATOMS
Info: INITIAL TEMPERATURE    300
Info: CENTER OF MASS MOVING INITIALLY? NO
Info: DIELECTRIC             1
Info: EXCLUDE                SCALED ONE-FOUR
Info: 1-4 ELECTROSTATICS SCALED BY 0.833333
Info: MODIFIED 1-4 VDW PARAMETERS WILL BE USED
Info: DCD FILENAME           mobley_2577969_equil.dcd
Info: DCD FREQUENCY          100000
Info: DCD FIRST STEP         100000
Info: DCD FILE WILL CONTAIN UNIT CELL DATA
Info: XST FILENAME           mobley_2577969_equil.xst
Info: XST FREQUENCY          100000
Info: NO VELOCITY DCD OUTPUT
Info: NO FORCE DCD OUTPUT
Info: OUTPUT FILENAME        mobley_2577969_equil
Info: BINARY OUTPUT FILES WILL BE USED
Info: RESTART FILENAME       mobley_2577969_equil.restart
Info: RESTART FREQUENCY      100000
Info: BINARY RESTART FILES WILL BE USED
Info: CUTOFF                 9
Info: PAIRLIST DISTANCE      11
Info: PAIRLIST SHRINK RATE   0.01
Info: PAIRLIST GROW RATE     0.01
Info: PAIRLIST TRIGGER       0.3
Info: PAIRLISTS PER CYCLE    2
Info: PAIRLISTS ENABLED
Info: MARGIN                 8
Info: HYDROGEN GROUP CUTOFF  2.5
Info: PATCH DIMENSION        21.5
Info: ENERGY OUTPUT STEPS    100000
Info: ENERGY EVALUATION STEPS    100000
Info: OUTPUT ENERGY PRECISION 4
Info: CROSSTERM ENERGY INCLUDED IN DIHEDRAL
Info: TIMING OUTPUT STEPS    1000000
Info: PRESSURE OUTPUT STEPS  100000
Info: FIXED ATOMS ACTIVE
Info: LANGEVIN DYNAMICS ACTIVE
Info: LANGEVIN TEMPERATURE   30
Info: LANGEVIN USING BBK INTEGRATOR
Info: LANGEVIN DAMPING COEFFICIENT IS 1 INVERSE PS
Info: LANGEVIN DYNAMICS APPLIED TO HYDROGENS
Info: LANGEVIN PISTON PRESSURE CONTROL ACTIVE
Info:        TARGET PRESSURE IS 1.01325 BAR
Info:     OSCILLATION PERIOD IS 50 FS
Info:             DECAY TIME IS 25 FS
Info:     PISTON TEMPERATURE IS 300 K
Info:       PRESSURE CONTROL IS GROUP-BASED
Info:    INITIAL STRAIN RATE IS 0 0 0
Info:       CELL FLUCTUATION IS ISOTROPIC
Info: PARTICLE MESH EWALD (PME) ACTIVE
Info: PME TOLERANCE               1e-06
Info: PME EWALD COEFFICIENT       0.348832
Info: PME INTERPOLATION ORDER     4
Info: PME GRID DIMENSIONS         40 40 32
Info: PME MAXIMUM GRID SPACING    1
Info: FULL ELECTROSTATIC EVALUATION FREQUENCY      2
Info: USING VERLET I (r-RESPA) MTS SCHEME.
Info: C1 SPLITTING OF LONG RANGE ELECTROSTATICS
Info: PLACING ATOMS IN PATCHES BY HYDROGEN GROUPS
Info: RIGID BONDS TO HYDROGEN : ALL
Info:         ERROR TOLERANCE : 1e-08
Info:          MAX ITERATIONS : 100
Info: RIGID WATER USING SETTLE ALGORITHM
Info: RANDOM NUMBER SEED     1743765315
Info: USE HYDROGEN BONDS?    NO
Info: Using AMBER format force field!
Info: AMBER PARM FILE        mobley_2577969.prmtop
Info: COORDINATE PDB         mobley_2577969.pdb
Info: Exclusions will be read from PARM file!
Info: SCNB (VDW SCALING)     2
Info: USING ARITHMETIC MEAN TO COMBINE L-J SIGMA PARAMETERS
Info: BINARY COORDINATES     mobley_2577969_min.coor
Info: SUMMARY OF PARAMETERS:
Info: 4 BONDS
Info: 2 ANGLES
Info:   2 HARMONIC
Info:   0 COSINE-BASED
Info: 2 DIHEDRAL
Info: 0 IMPROPER
Info: 0 CROSSTERM
Info: 0 VDW
Info: 10 VDW_PAIRS
Info: 0 NBTHOLE_PAIRS
Info: STRUCTURE SUMMARY:
Info: 2966 ATOMS
Info: 2969 BONDS
Info: 48 ANGLES
Info: 92 DIHEDRALS
Info: 0 IMPROPERS
Info: 0 CROSSTERMS
Info: 3081 EXCLUSIONS
Info: 26 FIXED ATOMS
Info: 2950 RIGID BONDS
Info: 10 RIGID BONDS BETWEEN FIXED ATOMS
Info: 5880 DEGREES OF FREEDOM
Info: 996 HYDROGEN GROUPS
Info: 3 ATOMS IN LARGEST HYDROGEN GROUP
Info: 996 MIGRATION GROUPS
Info: 3 ATOMS IN LARGEST MIGRATION GROUP
Info: 16 HYDROGEN GROUPS WITH ALL ATOMS FIXED
Info: TOTAL MASS = 17857.9 amu
Info: TOTAL CHARGE = 9.9944e-05 e
Info: MASS DENSITY = 0.660922 g/cm^3
Info: ATOM DENSITY = 0.0661045 atoms/A^3
Info: ADDED 0 IMPLICIT EXCLUSIONS
Info: NONBONDED TABLE R-SQUARED SPACING: 0.0625
Info: NONBONDED TABLE SIZE: 705 POINTS
Info: REMOVING COM VELOCITY -0.0874946 -0.0499807 -0.0754566
TCL: Running for 100000 steps
ETITLE: TS BOND ANGLE DIHED IMPRP ELECT VDW BOUNDARY MISC KINETIC TOTAL TEMP POTENTIAL TOTAL3 TEMPAVG PRESSURE GPRESSURE VOLUME PRESSAVG GPRESSAVG
ENERGY: 0 0.0000 0.0000 0.0000 0.0000 -13671.6917 2343.4201 0.0000 0.0000 1822.3041 -9505.9675 311.9133 -11328.2716 -9505.5543 311.9133 88.1754 129.7314 44868.3480 88.1754 129.7314
ENERGY: 100000 0.0000 0.0000 0.0000 0.0000 -14180.9945 2445.7294 0.0000 0.0000 180.3131 -11554.9520 30.8632 -11735.2651 -11554.1664 30.9408 -312.1705 -265.0257 30351.9657 2.9017 2.9258
TCL: Running 100000 steps at 60 kelvin.
TCL: Setting parameter langevinTemp to 60
TCL: Running for 100000 steps
ETITLE: TS BOND ANGLE DIHED IMPRP ELECT VDW BOUNDARY MISC KINETIC TOTAL TEMP POTENTIAL TOTAL3 TEMPAVG PRESSURE GPRESSURE VOLUME PRESSAVG GPRESSAVG
ENERGY: 100000 0.0000 0.0000 0.0000 0.0000 -14180.9945 2445.7294 0.0000 0.0000 180.2287 -11555.0364 30.8487 -11735.2651 -11554.6127 30.8487 -325.2628 -265.0321 30351.9657 -325.2628 -265.0321
ENERGY: 200000 0.0000 0.0000 0.0000 0.0000 -13984.5916 2340.6563 0.0000 0.0000 347.2603 -11296.6750 59.4386 -11643.9353 -11295.8764 59.8297 -797.2732 -772.1431 30409.9177 4.3598 4.3620
TCL: Running 100000 steps at 90 kelvin.
TCL: Setting parameter langevinTemp to 90
TCL: Running for 100000 steps
ETITLE: TS BOND ANGLE DIHED IMPRP ELECT VDW BOUNDARY MISC KINETIC TOTAL TEMP POTENTIAL TOTAL3 TEMPAVG PRESSURE GPRESSURE VOLUME PRESSAVG GPRESSAVG
ENERGY: 200000 0.0000 0.0000 0.0000 0.0000 -13984.5916 2340.6563 0.0000 0.0000 347.0842 -11296.8511 59.4084 -11643.9353 -11296.1572 59.4084 -827.6810 -772.2407 30409.9177 -827.6810 -772.2407
ENERGY: 300000 0.0000 0.0000 0.0000 0.0000 -13969.3504 2412.8000 0.0000 0.0000 523.4733 -11033.0770 89.5999 -11556.5503 -11031.2235 89.8778 229.3347 278.2688 29687.4946 3.3232 3.1831
TCL: Running 100000 steps at 120 kelvin.
TCL: Setting parameter langevinTemp to 120
TCL: Running for 100000 steps
ETITLE: TS BOND ANGLE DIHED IMPRP ELECT VDW BOUNDARY MISC KINETIC TOTAL TEMP POTENTIAL TOTAL3 TEMPAVG PRESSURE GPRESSURE VOLUME PRESSAVG GPRESSAVG
ENERGY: 300000 0.0000 0.0000 0.0000 0.0000 -13969.3504 2412.8000 0.0000 0.0000 523.2072 -11033.3431 89.5544 -11556.5503 -11032.3905 89.5544 218.1867 279.1531 29687.4946 218.1867 279.1531
ENERGY: 400000 0.0000 0.0000 0.0000 0.0000 -13840.8549 2398.8025 0.0000 0.0000 688.1613 -10753.8911 117.7886 -11442.0523 -10751.9936 120.0374 577.0258 685.7104 29267.2217 4.5570 4.4433
TCL: Running 100000 steps at 150 kelvin.
TCL: Setting parameter langevinTemp to 150
TCL: Running for 100000 steps
ETITLE: TS BOND ANGLE DIHED IMPRP ELECT VDW BOUNDARY MISC KINETIC TOTAL TEMP POTENTIAL TOTAL3 TEMPAVG PRESSURE GPRESSURE VOLUME PRESSAVG GPRESSAVG
ENERGY: 400000 0.0000 0.0000 0.0000 0.0000 -13840.8549 2398.8025 0.0000 0.0000 687.8156 -10754.2367 117.7294 -11442.0523 -10752.9603 117.7294 625.1324 685.5968 29267.2217 625.1324 685.5968
ENERGY: 500000 0.0000 0.0000 0.0000 0.0000 -13540.3557 2246.3503 0.0000 0.0000 880.1691 -10413.8363 150.6535 -11294.0054 -10411.7044 149.6366 14.0560 62.1576 29254.6602 2.6480 2.5796
TCL: Running 100000 steps at 180 kelvin.
TCL: Setting parameter langevinTemp to 180
TCL: Running for 100000 steps
ETITLE: TS BOND ANGLE DIHED IMPRP ELECT VDW BOUNDARY MISC KINETIC TOTAL TEMP POTENTIAL TOTAL3 TEMPAVG PRESSURE GPRESSURE VOLUME PRESSAVG GPRESSAVG
ENERGY: 500000 0.0000 0.0000 0.0000 0.0000 -13540.3557 2246.3503 0.0000 0.0000 879.7298 -10414.2757 150.5783 -11294.0054 -10412.5274 150.5783 13.4893 62.8013 29254.6602 13.4893 62.8013
ENERGY: 600000 0.0000 0.0000 0.0000 0.0000 -13133.5173 2110.4938 0.0000 0.0000 1068.6986 -9954.3249 182.9230 -11023.0235 -9952.5421 179.8717 61.1509 111.3906 29106.4044 3.2113 3.1147
TCL: Running 100000 steps at 210 kelvin.
TCL: Setting parameter langevinTemp to 210
TCL: Running for 100000 steps
ETITLE: TS BOND ANGLE DIHED IMPRP ELECT VDW BOUNDARY MISC KINETIC TOTAL TEMP POTENTIAL TOTAL3 TEMPAVG PRESSURE GPRESSURE VOLUME PRESSAVG GPRESSAVG
ENERGY: 600000 0.0000 0.0000 0.0000 0.0000 -13133.5173 2110.4938 0.0000 0.0000 1068.2084 -9954.8151 182.8391 -11023.0235 -9953.0037 182.8391 57.4320 111.5764 29106.4044 57.4320 111.5764
ENERGY: 700000 0.0000 0.0000 0.0000 0.0000 -12384.3765 1863.5838 0.0000 0.0000 1246.4903 -9274.3024 213.3546 -10520.7927 -9271.2697 209.3717 242.2602 316.7649 28496.2794 4.1826 3.9908
TCL: Running 100000 steps at 240 kelvin.
TCL: Setting parameter langevinTemp to 240
TCL: Running for 100000 steps
ETITLE: TS BOND ANGLE DIHED IMPRP ELECT VDW BOUNDARY MISC KINETIC TOTAL TEMP POTENTIAL TOTAL3 TEMPAVG PRESSURE GPRESSURE VOLUME PRESSAVG GPRESSAVG
ENERGY: 700000 0.0000 0.0000 0.0000 0.0000 -12384.3765 1863.5838 0.0000 0.0000 1245.8701 -9274.9226 213.2484 -10520.7927 -9272.4126 213.2484 235.2988 316.8645 28496.2794 235.2988 316.8645
ENERGY: 800000 0.0000 0.0000 0.0000 0.0000 -11915.7535 1711.6845 0.0000 0.0000 1385.1360 -8818.9330 237.0858 -10204.0690 -8815.9167 239.5432 -153.8174 -149.2990 29145.5780 3.3175 3.2648
TCL: Running 100000 steps at 270 kelvin.
TCL: Setting parameter langevinTemp to 270
TCL: Running for 100000 steps
ETITLE: TS BOND ANGLE DIHED IMPRP ELECT VDW BOUNDARY MISC KINETIC TOTAL TEMP POTENTIAL TOTAL3 TEMPAVG PRESSURE GPRESSURE VOLUME PRESSAVG GPRESSAVG
ENERGY: 800000 0.0000 0.0000 0.0000 0.0000 -11915.7535 1711.6845 0.0000 0.0000 1384.4468 -8819.6222 236.9678 -10204.0690 -8817.3742 236.9678 -222.9556 -150.3102 29145.5780 -222.9556 -150.3102
ENERGY: 900000 0.0000 0.0000 0.0000 0.0000 -11293.5105 1601.3919 0.0000 0.0000 1567.7693 -8124.3493 268.3461 -9692.1186 -8120.1734 270.0813 274.8790 470.3309 29787.7404 3.0508 3.1101
TCL: Running 1000000 steps at 300 kelvin.
TCL: Setting parameter langevinTemp to 300
TCL: Running for 1000000 steps
ETITLE: TS BOND ANGLE DIHED IMPRP ELECT VDW BOUNDARY MISC KINETIC TOTAL TEMP POTENTIAL TOTAL3 TEMPAVG PRESSURE GPRESSURE VOLUME PRESSAVG GPRESSAVG
ENERGY: 900000 0.0000 0.0000 0.0000 0.0000 -11293.5105 1601.3919 0.0000 0.0000 1567.0185 -8125.1001 268.2175 -9692.1186 -8122.4253 268.2175 396.1176 471.3430 29787.7404 396.1176 471.3430
ENERGY: 1100000 0.0000 0.0000 0.0000 0.0000 -10679.6473 1397.7230 0.0000 0.0000 1757.8550 -7524.0693 300.8819 -9281.9242 -7520.8869 299.6737 -242.4721 -118.7572 30569.2478 2.8101 2.9535
ENERGY: 1300000 0.0000 0.0000 0.0000 0.0000 -10694.1795 1385.3192 0.0000 0.0000 1745.2470 -7563.6133 298.7239 -9308.8603 -7558.2867 300.4539 -592.6189 -508.4597 30814.4494 2.7178 2.7336
ENERGY: 1500000 0.0000 0.0000 0.0000 0.0000 -10712.3418 1409.7491 0.0000 0.0000 1708.0732 -7594.5195 292.3611 -9302.5927 -7592.3686 300.7004 -43.3057 78.9696 30139.9095 4.1384 4.1149
ENERGY: 1700000 0.0000 0.0000 0.0000 0.0000 -10792.8807 1454.1562 0.0000 0.0000 1694.5170 -7644.2075 290.0407 -9338.7245 -7638.9385 300.6508 -66.6682 39.5773 30600.1922 3.1139 3.0975
ENERGY: 1900000 0.0000 0.0000 0.0000 0.0000 -10581.7424 1358.9672 0.0000 0.0000 1757.1083 -7465.6669 300.7541 -9222.7752 -7460.3149 300.4732 -367.3656 -250.0283 30749.7654 3.5028 3.4574
TCL: Exiting due to exit command.
