Info: SIMULATION PARAMETERS:
Info: TIMESTEP               2
Info: NUMBER OF STEPS        0
Info: STEPS PER CYCLE        10
Info: PERIODIC CELL BASIS 1  37.399 0 0
Info: PERIODIC CELL BASIS 2  0 34.26 0
Info: PERIODIC CELL BASIS 3  0 0 33.876
Info: PERIODIC CELL CENTER   0 0 0
Info: WRAPPING WATERS AROUND PERIODIC BOUNDARIES ON OUTPUT.
Info: WRAPPING ALL CLUSTERS AROUND PERIODIC BOUNDARIES ON OUTPUT.
Info: FIRST LDB TIMESTEP     50
Info: LAST LDB TIMESTEP     -1
Info: HOM BACKGROUND SCALING 1
Info: PME BACKGROUND SCALING 1
Info: MIN ATOMS PER PATCH    40
Info: EMPTY PATCH LOAD       40 ATOMS
Info: INITIAL TEMPERATURE    300
Info: CENTER OF MASS MOVING INITIALLY? NO
Info: DIELECTRIC             1
Info: EXCLUDE                SCALED ONE-FOUR
Info: 1-4 ELECTROSTATICS SCALED BY 0.833333
Info: MODIFIED 1-4 VDW PARAMETERS WILL BE USED
Info: DCD FILENAME           mobley_9121449_equil.dcd
Info: DCD FREQUENCY          100000
Info: DCD FIRST STEP         100000
Info: DCD FILE WILL CONTAIN UNIT CELL DATA
Info: XST FILENAME           mobley_9121449_equil.xst
Info: XST FREQUENCY          100000
Info: NO VELOCITY DCD OUTPUT
Info: NO FORCE DCD OUTPUT
Info: OUTPUT FILENAME        mobley_9121449_equil
Info: BINARY OUTPUT FILES WILL BE USED
Info: RESTART FILENAME       mobley_9121449_equil.restart
Info: RESTART FREQUENCY      100000
Info: BINARY RESTART FILES WILL BE USED
Info: CUTOFF                 9
Info: PAIRLIST DISTANCE      11
Info: PAIRLIST SHRINK RATE   0.01
Info: PAIRLIST GROW RATE     0.01
Info: PAIRLIST TRIGGER       0.3
Info: PAIRLISTS PER CYCLE    2
Info: PAIRLISTS ENABLED
Info: MARGIN                 8
Info: HYDROGEN GROUP CUTOFF  2.5
Info: PATCH DIMENSION        21.5
Info: ENERGY OUTPUT STEPS    100000
Info: ENERGY EVALUATION STEPS    100000
Info: OUTPUT ENERGY PRECISION 4
Info: CROSSTERM ENERGY INCLUDED IN DIHEDRAL
Info: TIMING OUTPUT STEPS    1000000
Info: PRESSURE OUTPUT STEPS  100000
Info: FIXED ATOMS ACTIVE
Info: LANGEVIN DYNAMICS ACTIVE
Info: LANGEVIN TEMPERATURE   30
Info: LANGEVIN USING BBK INTEGRATOR
Info: LANGEVIN DAMPING COEFFICIENT IS 1 INVERSE PS
Info: LANGEVIN DYNAMICS APPLIED TO HYDROGENS
Info: LANGEVIN PISTON PRESSURE CONTROL ACTIVE
Info:        TARGET PRESSURE IS 1.01325 BAR
Info:     OSCILLATION PERIOD IS 50 FS
Info:             DECAY TIME IS 25 FS
Info:     PISTON TEMPERATURE IS 300 K
Info:       PRESSURE CONTROL IS GROUP-BASED
Info:    INITIAL STRAIN RATE IS 0 0 0
Info:       CELL FLUCTUATION IS ISOTROPIC
Info: PARTICLE MESH EWALD (PME) ACTIVE
Info: PME TOLERANCE               1e-06
Info: PME EWALD COEFFICIENT       0.348832
Info: PME INTERPOLATION ORDER     4
Info: PME GRID DIMENSIONS         40 36 36
Info: PME MAXIMUM GRID SPACING    1
Info: FULL ELECTROSTATIC EVALUATION FREQUENCY      2
Info: USING VERLET I (r-RESPA) MTS SCHEME.
Info: C1 SPLITTING OF LONG RANGE ELECTROSTATICS
Info: PLACING ATOMS IN PATCHES BY HYDROGEN GROUPS
Info: RIGID BONDS TO HYDROGEN : ALL
Info:         ERROR TOLERANCE : 1e-08
Info:          MAX ITERATIONS : 100
Info: RIGID WATER USING SETTLE ALGORITHM
Info: RANDOM NUMBER SEED     1743683755
Info: USE HYDROGEN BONDS?    NO
Info: Using AMBER format force field!
Info: AMBER PARM FILE        mobley_9121449.prmtop
Info: COORDINATE PDB         mobley_9121449.pdb
Info: Exclusions will be read from PARM file!
Info: SCNB (VDW SCALING)     2
Info: USING ARITHMETIC MEAN TO COMBINE L-J SIGMA PARAMETERS
Info: BINARY COORDINATES     mobley_9121449_min.coor
Info: SUMMARY OF PARAMETERS:
Info: 7 BONDS
Info: 6 ANGLES
Info: 3 DIHEDRAL
Info: 0 IMPROPER
Info: 0 CROSSTERM
Info: 0 VDW
Info: 21 VDW_PAIRS
Info: 0 NBTHOLE_PAIRS
Info: STRUCTURE SUMMARY:
Info: 2926 ATOMS
Info: 2925 BONDS
Info: 14 ANGLES
Info: 13 DIHEDRALS
Info: 0 IMPROPERS
Info: 0 CROSSTERMS
Info: 2952 EXCLUSIONS
Info: 10 FIXED ATOMS
Info: 2922 RIGID BONDS
Info: 6 RIGID BONDS BETWEEN FIXED ATOMS
Info: 5832 DEGREES OF FREEDOM
Info: 976 HYDROGEN GROUPS
Info: 4 ATOMS IN LARGEST HYDROGEN GROUP
Info: 976 MIGRATION GROUPS
Info: 4 ATOMS IN LARGEST MIGRATION GROUP
Info: 4 HYDROGEN GROUPS WITH ALL ATOMS FIXED
Info: TOTAL MASS = 17565.6 amu
Info: TOTAL CHARGE = 1.16415e-08 e
Info: MASS DENSITY = 0.672022 g/cm^3
Info: ATOM DENSITY = 0.0674116 atoms/A^3
Info: ADDED 0 IMPLICIT EXCLUSIONS
Info: NONBONDED TABLE R-SQUARED SPACING: 0.0625
Info: NONBONDED TABLE SIZE: 705 POINTS
Info: REMOVING COM VELOCITY 0.209224 -0.20063 0.0225302
TCL: Running for 100000 steps
ETITLE: TS BOND ANGLE DIHED IMPRP ELECT VDW BOUNDARY MISC KINETIC TOTAL TEMP POTENTIAL TOTAL3 TEMPAVG PRESSURE GPRESSURE VOLUME PRESSAVG GPRESSAVG
ENERGY: 0 0.0000 0.0000 0.0000 0.0000 -13566.2756 2375.5333 0.0000 0.0000 1690.8493 -9499.8930 291.7949 -11190.7423 -9499.5624 291.7949 309.7376 351.9476 43404.9712 309.7376 351.9476
ENERGY: 100000 0.0000 0.0000 0.0000 0.0000 -14148.6455 2499.5880 0.0000 0.0000 167.1253 -11481.9323 28.8413 -11649.0575 -11481.5869 30.8630 252.9430 291.7021 28948.6593 3.4612 3.4462
TCL: Running 100000 steps at 60 kelvin.
TCL: Setting parameter langevinTemp to 60
TCL: Running for 100000 steps
ETITLE: TS BOND ANGLE DIHED IMPRP ELECT VDW BOUNDARY MISC KINETIC TOTAL TEMP POTENTIAL TOTAL3 TEMPAVG PRESSURE GPRESSURE VOLUME PRESSAVG GPRESSAVG
ENERGY: 100000 0.0000 0.0000 0.0000 0.0000 -14148.6455 2499.5880 0.0000 0.0000 167.0388 -11482.0187 28.8264 -11649.0575 -11481.6915 28.8264 247.0978 291.5316 28948.6593 247.0978 291.5316
ENERGY: 200000 0.0000 0.0000 0.0000 0.0000 -13938.5151 2367.5646 0.0000 0.0000 358.4032 -11212.5473 61.8507 -11570.9505 -11211.2258 59.8715 -545.8752 -500.1565 28983.0228 3.7822 3.6402
TCL: Running 100000 steps at 90 kelvin.
TCL: Setting parameter langevinTemp to 90
TCL: Running for 100000 steps
ETITLE: TS BOND ANGLE DIHED IMPRP ELECT VDW BOUNDARY MISC KINETIC TOTAL TEMP POTENTIAL TOTAL3 TEMPAVG PRESSURE GPRESSURE VOLUME PRESSAVG GPRESSAVG
ENERGY: 200000 0.0000 0.0000 0.0000 0.0000 -13938.5151 2367.5646 0.0000 0.0000 358.2317 -11212.7187 61.8211 -11570.9505 -11211.8996 61.8211 -551.1935 -499.1716 28983.0228 -551.1935 -499.1716
ENERGY: 300000 0.0000 0.0000 0.0000 0.0000 -13706.2164 2232.1193 0.0000 0.0000 518.1412 -10955.9560 89.4172 -11474.0971 -10954.5122 90.0325 -1312.1616 -1277.5801 29020.0522 3.7647 3.7537
TCL: Running 100000 steps at 120 kelvin.
TCL: Setting parameter langevinTemp to 120
TCL: Running for 100000 steps
ETITLE: TS BOND ANGLE DIHED IMPRP ELECT VDW BOUNDARY MISC KINETIC TOTAL TEMP POTENTIAL TOTAL3 TEMPAVG PRESSURE GPRESSURE VOLUME PRESSAVG GPRESSAVG
ENERGY: 300000 0.0000 0.0000 0.0000 0.0000 -13706.2164 2232.1193 0.0000 0.0000 517.8682 -10956.2290 89.3701 -11474.0971 -10955.1269 89.3701 -1335.1314 -1277.5389 29020.0522 -1335.1314 -1277.5389
ENERGY: 400000 0.0000 0.0000 0.0000 0.0000 -13746.6748 2364.1373 0.0000 0.0000 692.0361 -10690.5015 119.4267 -11382.5375 -10688.2249 119.9479 346.1960 410.6038 28562.1324 4.7604 4.6437
TCL: Running 100000 steps at 150 kelvin.
TCL: Setting parameter langevinTemp to 150
TCL: Running for 100000 steps
ETITLE: TS BOND ANGLE DIHED IMPRP ELECT VDW BOUNDARY MISC KINETIC TOTAL TEMP POTENTIAL TOTAL3 TEMPAVG PRESSURE GPRESSURE VOLUME PRESSAVG GPRESSAVG
ENERGY: 400000 0.0000 0.0000 0.0000 0.0000 -13746.6748 2364.1373 0.0000 0.0000 691.6710 -10690.8665 119.3637 -11382.5375 -10689.4722 119.3637 362.2496 410.7710 28562.1324 362.2496 410.7710
ENERGY: 500000 0.0000 0.0000 0.0000 0.0000 -13281.9314 2073.8469 0.0000 0.0000 892.1001 -10315.9844 153.9524 -11208.0845 -10313.7344 149.8260 -1567.6421 -1512.2700 28974.0707 4.4357 4.3574
TCL: Running 100000 steps at 180 kelvin.
TCL: Setting parameter langevinTemp to 180
TCL: Running for 100000 steps
ETITLE: TS BOND ANGLE DIHED IMPRP ELECT VDW BOUNDARY MISC KINETIC TOTAL TEMP POTENTIAL TOTAL3 TEMPAVG PRESSURE GPRESSURE VOLUME PRESSAVG GPRESSAVG
ENERGY: 500000 0.0000 0.0000 0.0000 0.0000 -13281.9314 2073.8469 0.0000 0.0000 891.6638 -10316.4207 153.8771 -11208.0845 -10314.3844 153.8771 -1564.0531 -1511.2787 28974.0707 -1564.0531 -1511.2787
ENERGY: 600000 0.0000 0.0000 0.0000 0.0000 -12808.3798 1920.8920 0.0000 0.0000 1056.9275 -9830.5604 182.3972 -10887.4878 -9829.1359 179.9235 -1397.6784 -1342.3458 28699.1362 3.7520 3.7504
TCL: Running 100000 steps at 210 kelvin.
TCL: Setting parameter langevinTemp to 210
TCL: Running for 100000 steps
ETITLE: TS BOND ANGLE DIHED IMPRP ELECT VDW BOUNDARY MISC KINETIC TOTAL TEMP POTENTIAL TOTAL3 TEMPAVG PRESSURE GPRESSURE VOLUME PRESSAVG GPRESSAVG
ENERGY: 600000 0.0000 0.0000 0.0000 0.0000 -12808.3798 1920.8920 0.0000 0.0000 1056.3854 -9831.1024 182.3036 -10887.4878 -9829.1898 182.3036 -1409.8256 -1342.2554 28699.1362 -1409.8256 -1342.2554
ENERGY: 700000 0.0000 0.0000 0.0000 0.0000 -12331.1682 1853.2938 0.0000 0.0000 1211.6887 -9266.1857 209.1048 -10477.8744 -9263.9543 210.1242 -435.4179 -376.6214 28837.1450 3.6861 3.6183
TCL: Running 100000 steps at 240 kelvin.
TCL: Setting parameter langevinTemp to 240
TCL: Running for 100000 steps
ETITLE: TS BOND ANGLE DIHED IMPRP ELECT VDW BOUNDARY MISC KINETIC TOTAL TEMP POTENTIAL TOTAL3 TEMPAVG PRESSURE GPRESSURE VOLUME PRESSAVG GPRESSAVG
ENERGY: 700000 0.0000 0.0000 0.0000 0.0000 -12331.1682 1853.2938 0.0000 0.0000 1211.0782 -9266.7963 208.9994 -10477.8744 -9264.5612 208.9994 -463.5756 -377.2487 28837.1450 -463.5756 -377.2487
ENERGY: 800000 0.0000 0.0000 0.0000 0.0000 -11804.2897 1712.1185 0.0000 0.0000 1380.3520 -8711.8193 238.2115 -10092.1712 -8709.1887 239.6784 -58.4745 5.2887 28510.2106 5.0261 5.0078
TCL: Running 100000 steps at 270 kelvin.
TCL: Setting parameter langevinTemp to 270
TCL: Running for 100000 steps
ETITLE: TS BOND ANGLE DIHED IMPRP ELECT VDW BOUNDARY MISC KINETIC TOTAL TEMP POTENTIAL TOTAL3 TEMPAVG PRESSURE GPRESSURE VOLUME PRESSAVG GPRESSAVG
ENERGY: 800000 0.0000 0.0000 0.0000 0.0000 -11804.2897 1712.1185 0.0000 0.0000 1379.6412 -8712.5300 238.0888 -10092.1712 -8710.1554 238.0888 -63.6547 5.8876 28510.2106 -63.6547 5.8876
ENERGY: 900000 0.0000 0.0000 0.0000 0.0000 -11088.0184 1498.7518 0.0000 0.0000 1575.0833 -8014.1833 271.8169 -9589.2666 -8013.0805 269.5086 -579.8063 -433.1883 29673.0418 3.1171 3.2836
TCL: Running 1000000 steps at 300 kelvin.
TCL: Setting parameter langevinTemp to 300
TCL: Running for 1000000 steps
ETITLE: TS BOND ANGLE DIHED IMPRP ELECT VDW BOUNDARY MISC KINETIC TOTAL TEMP POTENTIAL TOTAL3 TEMPAVG PRESSURE GPRESSURE VOLUME PRESSAVG GPRESSAVG
ENERGY: 900000 0.0000 0.0000 0.0000 0.0000 -11088.0184 1498.7518 0.0000 0.0000 1574.2930 -8014.9736 271.6805 -9589.2666 -8011.9736 271.6805 -521.8874 -436.6064 29673.0418 -521.8874 -436.6064
ENERGY: 1100000 0.0000 0.0000 0.0000 0.0000 -10612.3228 1455.5874 0.0000 0.0000 1760.2020 -7396.5334 303.7634 -9156.7354 -7394.6382 298.8499 457.9092 516.3953 29982.2599 2.3334 2.3113
ENERGY: 1300000 0.0000 0.0000 0.0000 0.0000 -10746.6019 1473.1102 0.0000 0.0000 1768.4207 -7505.0711 305.1817 -9273.4918 -7500.0969 300.1549 63.0747 168.8317 30224.7448 2.8998 3.0744
ENERGY: 1500000 0.0000 0.0000 0.0000 0.0000 -10629.6635 1412.6505 0.0000 0.0000 1753.6609 -7463.3521 302.6345 -9217.0129 -7462.2661 300.3902 -247.8222 -185.1540 30264.3445 2.6994 2.8549
ENERGY: 1700000 0.0000 0.0000 0.0000 0.0000 -10692.2146 1472.7949 0.0000 0.0000 1741.5925 -7477.8271 300.5519 -9219.4196 -7474.7699 300.8014 192.1121 282.7594 30188.7573 3.8172 3.6440
ENERGY: 1900000 0.0000 0.0000 0.0000 0.0000 -10509.6452 1347.5506 0.0000 0.0000 1717.9985 -7444.0960 296.4802 -9162.0945 -7442.0216 300.2944 -712.4448 -535.5325 30411.4996 3.7242 3.5635
TCL: Exiting due to exit command.
