Info: SIMULATION PARAMETERS:
Info: TIMESTEP               2
Info: NUMBER OF STEPS        0
Info: STEPS PER CYCLE        10
Info: PERIODIC CELL BASIS 1  38.861 0 0
Info: PERIODIC CELL BASIS 2  0 35.411 0
Info: PERIODIC CELL BASIS 3  0 0 31.561
Info: PERIODIC CELL CENTER   0 0 0
Info: WRAPPING WATERS AROUND PERIODIC BOUNDARIES ON OUTPUT.
Info: WRAPPING ALL CLUSTERS AROUND PERIODIC BOUNDARIES ON OUTPUT.
Info: FIRST LDB TIMESTEP     50
Info: LAST LDB TIMESTEP     -1
Info: HOM BACKGROUND SCALING 1
Info: PME BACKGROUND SCALING 1
Info: MIN ATOMS PER PATCH    40
Info: EMPTY PATCH LOAD       40 ATOMS
Info: INITIAL TEMPERATURE    300
Info: CENTER OF MASS MOVING INITIALLY? NO
Info: DIELECTRIC             1
Info: EXCLUDE                SCALED ONE-FOUR
Info: 1-4 ELECTROSTATICS SCALED BY 0.833333
Info: MODIFIED 1-4 VDW PARAMETERS WILL BE USED
Info: DCD FILENAME           mobley_7150646_equil.dcd
Info: DCD FREQUENCY          100000
Info: DCD FIRST STEP         100000
Info: DCD FILE WILL CONTAIN UNIT CELL DATA
Info: XST FILENAME           mobley_7150646_equil.xst
Info: XST FREQUENCY          100000
Info: NO VELOCITY DCD OUTPUT
Info: NO FORCE DCD OUTPUT
Info: OUTPUT FILENAME        mobley_7150646_equil
Info: BINARY OUTPUT FILES WILL BE USED
Info: RESTART FILENAME       mobley_7150646_equil.restart
Info: RESTART FREQUENCY      100000
Info: BINARY RESTART FILES WILL BE USED
Info: CUTOFF                 9
Info: PAIRLIST DISTANCE      11
Info: PAIRLIST SHRINK RATE   0.01
Info: PAIRLIST GROW RATE     0.01
Info: PAIRLIST TRIGGER       0.3
Info: PAIRLISTS PER CYCLE    2
Info: PAIRLISTS ENABLED
Info: MARGIN                 8
Info: HYDROGEN GROUP CUTOFF  2.5
Info: PATCH DIMENSION        21.5
Info: ENERGY OUTPUT STEPS    100000
Info: ENERGY EVALUATION STEPS    100000
Info: OUTPUT ENERGY PRECISION 4
Info: CROSSTERM ENERGY INCLUDED IN DIHEDRAL
Info: TIMING OUTPUT STEPS    1000000
Info: PRESSURE OUTPUT STEPS  100000
Info: FIXED ATOMS ACTIVE
Info: LANGEVIN DYNAMICS ACTIVE
Info: LANGEVIN TEMPERATURE   30
Info: LANGEVIN USING BBK INTEGRATOR
Info: LANGEVIN DAMPING COEFFICIENT IS 1 INVERSE PS
Info: LANGEVIN DYNAMICS APPLIED TO HYDROGENS
Info: LANGEVIN PISTON PRESSURE CONTROL ACTIVE
Info:        TARGET PRESSURE IS 1.01325 BAR
Info:     OSCILLATION PERIOD IS 50 FS
Info:             DECAY TIME IS 25 FS
Info:     PISTON TEMPERATURE IS 300 K
Info:       PRESSURE CONTROL IS GROUP-BASED
Info:    INITIAL STRAIN RATE IS 0 0 0
Info:       CELL FLUCTUATION IS ISOTROPIC
Info: PARTICLE MESH EWALD (PME) ACTIVE
Info: PME TOLERANCE               1e-06
Info: PME EWALD COEFFICIENT       0.348832
Info: PME INTERPOLATION ORDER     4
Info: PME GRID DIMENSIONS         40 36 32
Info: PME MAXIMUM GRID SPACING    1
Info: FULL ELECTROSTATIC EVALUATION FREQUENCY      2
Info: USING VERLET I (r-RESPA) MTS SCHEME.
Info: C1 SPLITTING OF LONG RANGE ELECTROSTATICS
Info: PLACING ATOMS IN PATCHES BY HYDROGEN GROUPS
Info: RIGID BONDS TO HYDROGEN : ALL
Info:         ERROR TOLERANCE : 1e-08
Info:          MAX ITERATIONS : 100
Info: RIGID WATER USING SETTLE ALGORITHM
Info: RANDOM NUMBER SEED     1743726945
Info: USE HYDROGEN BONDS?    NO
Info: Using AMBER format force field!
Info: AMBER PARM FILE        mobley_7150646.prmtop
Info: COORDINATE PDB         mobley_7150646.pdb
Info: Exclusions will be read from PARM file!
Info: SCNB (VDW SCALING)     2
Info: USING ARITHMETIC MEAN TO COMBINE L-J SIGMA PARAMETERS
Info: BINARY COORDINATES     mobley_7150646_min.coor
Info: SUMMARY OF PARAMETERS:
Info: 5 BONDS
Info: 3 ANGLES
Info:   3 HARMONIC
Info:   0 COSINE-BASED
Info: 2 DIHEDRAL
Info: 0 IMPROPER
Info: 0 CROSSTERM
Info: 0 VDW
Info: 15 VDW_PAIRS
Info: 0 NBTHOLE_PAIRS
Info: STRUCTURE SUMMARY:
Info: 2955 ATOMS
Info: 2955 BONDS
Info: 18 ANGLES
Info: 30 DIHEDRALS
Info: 0 IMPROPERS
Info: 0 CROSSTERMS
Info: 2994 EXCLUSIONS
Info: 12 FIXED ATOMS
Info: 2947 RIGID BONDS
Info: 4 RIGID BONDS BETWEEN FIXED ATOMS
Info: 5886 DEGREES OF FREEDOM
Info: 989 HYDROGEN GROUPS
Info: 3 ATOMS IN LARGEST HYDROGEN GROUP
Info: 989 MIGRATION GROUPS
Info: 3 ATOMS IN LARGEST MIGRATION GROUP
Info: 8 HYDROGEN GROUPS WITH ALL ATOMS FIXED
Info: TOTAL MASS = 17909.6 amu
Info: TOTAL CHARGE = -0.000399988 e
Info: MASS DENSITY = 0.684766 g/cm^3
Info: ATOM DENSITY = 0.0680385 atoms/A^3
Info: ADDED 0 IMPLICIT EXCLUSIONS
Info: NONBONDED TABLE R-SQUARED SPACING: 0.0625
Info: NONBONDED TABLE SIZE: 705 POINTS
Info: REMOVING COM VELOCITY -0.0195346 -0.0134556 0.00339949
TCL: Running for 100000 steps
ETITLE: TS BOND ANGLE DIHED IMPRP ELECT VDW BOUNDARY MISC KINETIC TOTAL TEMP POTENTIAL TOTAL3 TEMPAVG PRESSURE GPRESSURE VOLUME PRESSAVG GPRESSAVG
ENERGY: 0 0.0000 0.0000 0.0000 0.0000 -13677.3755 2349.7140 0.0000 0.0000 1730.3392 -9597.3222 295.8703 -11327.6614 -9596.9468 295.8703 24.7825 63.3925 43431.3090 24.7825 63.3925
ENERGY: 100000 0.0000 0.0000 0.0000 0.0000 -14202.7415 2426.9999 0.0000 0.0000 173.0283 -11602.7132 29.5861 -11775.7416 -11602.2019 30.8676 -630.5532 -589.7984 29329.1586 4.9002 4.8968
TCL: Running 100000 steps at 60 kelvin.
TCL: Setting parameter langevinTemp to 60
TCL: Running for 100000 steps
ETITLE: TS BOND ANGLE DIHED IMPRP ELECT VDW BOUNDARY MISC KINETIC TOTAL TEMP POTENTIAL TOTAL3 TEMPAVG PRESSURE GPRESSURE VOLUME PRESSAVG GPRESSAVG
ENERGY: 100000 0.0000 0.0000 0.0000 0.0000 -14202.7415 2426.9999 0.0000 0.0000 172.9398 -11602.8018 29.5709 -11775.7416 -11602.4379 29.5709 -633.9194 -589.7953 29329.1586 -633.9194 -589.7953
ENERGY: 200000 0.0000 0.0000 0.0000 0.0000 -14253.2549 2545.2708 0.0000 0.0000 352.1853 -11355.7988 60.2201 -11707.9841 -11355.0744 59.8690 798.4084 838.5917 29017.3783 4.3008 4.3085
TCL: Running 100000 steps at 90 kelvin.
TCL: Setting parameter langevinTemp to 90
TCL: Running for 100000 steps
ETITLE: TS BOND ANGLE DIHED IMPRP ELECT VDW BOUNDARY MISC KINETIC TOTAL TEMP POTENTIAL TOTAL3 TEMPAVG PRESSURE GPRESSURE VOLUME PRESSAVG GPRESSAVG
ENERGY: 200000 0.0000 0.0000 0.0000 0.0000 -14253.2549 2545.2708 0.0000 0.0000 352.0169 -11355.9671 60.1913 -11707.9841 -11355.2930 60.1913 782.7674 838.6865 29017.3783 782.7674 838.6865
ENERGY: 300000 0.0000 0.0000 0.0000 0.0000 -14015.9051 2397.2053 0.0000 0.0000 535.2206 -11083.4792 91.5172 -11618.6998 -11082.1475 90.0024 -173.7690 -83.3257 29051.5926 4.3438 4.2662
TCL: Running 100000 steps at 120 kelvin.
TCL: Setting parameter langevinTemp to 120
TCL: Running for 100000 steps
ETITLE: TS BOND ANGLE DIHED IMPRP ELECT VDW BOUNDARY MISC KINETIC TOTAL TEMP POTENTIAL TOTAL3 TEMPAVG PRESSURE GPRESSURE VOLUME PRESSAVG GPRESSAVG
ENERGY: 300000 0.0000 0.0000 0.0000 0.0000 -14015.9051 2397.2053 0.0000 0.0000 534.9436 -11083.7562 91.4699 -11618.6998 -11082.9375 91.4699 -136.3282 -82.9290 29051.5926 -136.3282 -82.9290
ENERGY: 400000 0.0000 0.0000 0.0000 0.0000 -13800.3723 2296.2669 0.0000 0.0000 714.1906 -10789.9148 122.1193 -11504.1053 -10788.5040 120.1258 -444.6657 -366.8239 28955.7633 3.4815 3.5440
TCL: Running 100000 steps at 150 kelvin.
TCL: Setting parameter langevinTemp to 150
TCL: Running for 100000 steps
ETITLE: TS BOND ANGLE DIHED IMPRP ELECT VDW BOUNDARY MISC KINETIC TOTAL TEMP POTENTIAL TOTAL3 TEMPAVG PRESSURE GPRESSURE VOLUME PRESSAVG GPRESSAVG
ENERGY: 400000 0.0000 0.0000 0.0000 0.0000 -13800.3723 2296.2669 0.0000 0.0000 713.8495 -10790.2558 122.0610 -11504.1053 -10788.4945 122.0610 -423.8331 -367.6328 28955.7633 -423.8331 -367.6328
ENERGY: 500000 0.0000 0.0000 0.0000 0.0000 -13625.9682 2302.1897 0.0000 0.0000 877.8758 -10445.9028 150.1078 -11323.7785 -10443.5172 149.7275 103.8808 190.8200 29275.6190 2.9516 2.9596
TCL: Running 100000 steps at 180 kelvin.
TCL: Setting parameter langevinTemp to 180
TCL: Running for 100000 steps
ETITLE: TS BOND ANGLE DIHED IMPRP ELECT VDW BOUNDARY MISC KINETIC TOTAL TEMP POTENTIAL TOTAL3 TEMPAVG PRESSURE GPRESSURE VOLUME PRESSAVG GPRESSAVG
ENERGY: 500000 0.0000 0.0000 0.0000 0.0000 -13625.9682 2302.1897 0.0000 0.0000 877.4365 -10446.3420 150.0327 -11323.7785 -10444.8001 150.0327 131.8094 191.2057 29275.6190 131.8094 191.2057
ENERGY: 600000 0.0000 0.0000 0.0000 0.0000 -13253.8793 2177.1197 0.0000 0.0000 1049.0850 -10027.6747 179.3828 -11076.7597 -10024.5948 180.0245 399.4945 421.4904 28819.1037 3.6577 3.8089
TCL: Running 100000 steps at 210 kelvin.
TCL: Setting parameter langevinTemp to 210
TCL: Running for 100000 steps
ETITLE: TS BOND ANGLE DIHED IMPRP ELECT VDW BOUNDARY MISC KINETIC TOTAL TEMP POTENTIAL TOTAL3 TEMPAVG PRESSURE GPRESSURE VOLUME PRESSAVG GPRESSAVG
ENERGY: 600000 0.0000 0.0000 0.0000 0.0000 -13253.8793 2177.1197 0.0000 0.0000 1048.5575 -10028.2021 179.2926 -11076.7597 -10026.7631 179.2926 362.7648 423.3807 28819.1037 362.7648 423.3807
ENERGY: 700000 0.0000 0.0000 0.0000 0.0000 -12488.5737 1890.0506 0.0000 0.0000 1241.3270 -9357.1961 212.2542 -10598.5231 -9354.0759 210.2430 -258.8080 -201.0903 29090.9134 4.3426 4.0962
TCL: Running 100000 steps at 240 kelvin.
TCL: Setting parameter langevinTemp to 240
TCL: Running for 100000 steps
ETITLE: TS BOND ANGLE DIHED IMPRP ELECT VDW BOUNDARY MISC KINETIC TOTAL TEMP POTENTIAL TOTAL3 TEMPAVG PRESSURE GPRESSURE VOLUME PRESSAVG GPRESSAVG
ENERGY: 700000 0.0000 0.0000 0.0000 0.0000 -12488.5737 1890.0506 0.0000 0.0000 1240.7100 -9357.8130 212.1487 -10598.5231 -9355.7716 212.1487 -276.8212 -200.6357 29090.9134 -276.8212 -200.6357
ENERGY: 800000 0.0000 0.0000 0.0000 0.0000 -11772.4830 1690.4791 0.0000 0.0000 1408.0858 -8673.9181 240.7683 -10082.0040 -8672.5155 240.0112 -114.9635 -13.6697 29098.1354 4.1570 4.1789
TCL: Running 100000 steps at 270 kelvin.
TCL: Setting parameter langevinTemp to 270
TCL: Running for 100000 steps
ETITLE: TS BOND ANGLE DIHED IMPRP ELECT VDW BOUNDARY MISC KINETIC TOTAL TEMP POTENTIAL TOTAL3 TEMPAVG PRESSURE GPRESSURE VOLUME PRESSAVG GPRESSAVG
ENERGY: 800000 0.0000 0.0000 0.0000 0.0000 -11772.4830 1690.4791 0.0000 0.0000 1407.3881 -8674.6158 240.6490 -10082.0040 -8671.9374 240.6490 -98.7348 -15.3184 29098.1354 -98.7348 -15.3184
ENERGY: 900000 0.0000 0.0000 0.0000 0.0000 -11282.9066 1547.6439 0.0000 0.0000 1600.6966 -8134.5661 273.7027 -9735.2627 -8131.1833 270.2788 -202.5405 -135.4517 29514.1284 3.3552 3.2837
TCL: Running 1000000 steps at 300 kelvin.
TCL: Setting parameter langevinTemp to 300
TCL: Running for 1000000 steps
ETITLE: TS BOND ANGLE DIHED IMPRP ELECT VDW BOUNDARY MISC KINETIC TOTAL TEMP POTENTIAL TOTAL3 TEMPAVG PRESSURE GPRESSURE VOLUME PRESSAVG GPRESSAVG
ENERGY: 900000 0.0000 0.0000 0.0000 0.0000 -11282.9066 1547.6439 0.0000 0.0000 1599.8965 -8135.3662 273.5659 -9735.2627 -8132.8642 273.5659 -191.1734 -134.5571 29514.1284 -191.1734 -134.5571
ENERGY: 1100000 0.0000 0.0000 0.0000 0.0000 -10747.3451 1426.6492 0.0000 0.0000 1716.4588 -7604.2372 293.4969 -9320.6959 -7599.0529 300.3960 -198.5126 -110.2274 30498.3480 3.7052 3.5177
ENERGY: 1300000 0.0000 0.0000 0.0000 0.0000 -10829.7463 1512.2519 0.0000 0.0000 1680.1343 -7637.3602 287.2858 -9317.4945 -7635.2674 300.4212 368.9577 450.4830 30462.7774 3.6156 3.4580
ENERGY: 1500000 0.0000 0.0000 0.0000 0.0000 -10497.8801 1258.5197 0.0000 0.0000 1748.2262 -7491.1343 298.9288 -9239.3605 -7486.7757 299.6323 -1239.9343 -1192.1928 30811.3215 4.2196 4.1875
ENERGY: 1700000 0.0000 0.0000 0.0000 0.0000 -10762.4322 1445.9205 0.0000 0.0000 1745.6103 -7570.9014 298.4815 -9316.5117 -7566.5583 299.8285 212.6692 250.2507 30311.1785 2.7097 2.7348
ENERGY: 1900000 0.0000 0.0000 0.0000 0.0000 -10797.3952 1489.1583 0.0000 0.0000 1770.4758 -7537.7612 302.7332 -9308.2369 -7533.8156 300.6044 401.8644 466.8361 30435.7192 3.4951 3.4632
TCL: Exiting due to exit command.
