Info: SIMULATION PARAMETERS:
Info: TIMESTEP               2
Info: NUMBER OF STEPS        0
Info: STEPS PER CYCLE        10
Info: PERIODIC CELL BASIS 1  37.399 0 0
Info: PERIODIC CELL BASIS 2  0 35.847 0
Info: PERIODIC CELL BASIS 3  0 0 31.855
Info: PERIODIC CELL CENTER   0 0 0
Info: WRAPPING WATERS AROUND PERIODIC BOUNDARIES ON OUTPUT.
Info: WRAPPING ALL CLUSTERS AROUND PERIODIC BOUNDARIES ON OUTPUT.
Info: FIRST LDB TIMESTEP     50
Info: LAST LDB TIMESTEP     -1
Info: HOM BACKGROUND SCALING 1
Info: PME BACKGROUND SCALING 1
Info: MIN ATOMS PER PATCH    40
Info: EMPTY PATCH LOAD       40 ATOMS
Info: INITIAL TEMPERATURE    300
Info: CENTER OF MASS MOVING INITIALLY? NO
Info: DIELECTRIC             1
Info: EXCLUDE                SCALED ONE-FOUR
Info: 1-4 ELECTROSTATICS SCALED BY 0.833333
Info: MODIFIED 1-4 VDW PARAMETERS WILL BE USED
Info: DCD FILENAME           mobley_7688753_equil.dcd
Info: DCD FREQUENCY          100000
Info: DCD FIRST STEP         100000
Info: DCD FILE WILL CONTAIN UNIT CELL DATA
Info: XST FILENAME           mobley_7688753_equil.xst
Info: XST FREQUENCY          100000
Info: NO VELOCITY DCD OUTPUT
Info: NO FORCE DCD OUTPUT
Info: OUTPUT FILENAME        mobley_7688753_equil
Info: BINARY OUTPUT FILES WILL BE USED
Info: RESTART FILENAME       mobley_7688753_equil.restart
Info: RESTART FREQUENCY      100000
Info: BINARY RESTART FILES WILL BE USED
Info: CUTOFF                 9
Info: PAIRLIST DISTANCE      11
Info: PAIRLIST SHRINK RATE   0.01
Info: PAIRLIST GROW RATE     0.01
Info: PAIRLIST TRIGGER       0.3
Info: PAIRLISTS PER CYCLE    2
Info: PAIRLISTS ENABLED
Info: MARGIN                 8
Info: HYDROGEN GROUP CUTOFF  2.5
Info: PATCH DIMENSION        21.5
Info: ENERGY OUTPUT STEPS    100000
Info: ENERGY EVALUATION STEPS    100000
Info: OUTPUT ENERGY PRECISION 4
Info: CROSSTERM ENERGY INCLUDED IN DIHEDRAL
Info: TIMING OUTPUT STEPS    1000000
Info: PRESSURE OUTPUT STEPS  100000
Info: FIXED ATOMS ACTIVE
Info: LANGEVIN DYNAMICS ACTIVE
Info: LANGEVIN TEMPERATURE   30
Info: LANGEVIN USING BBK INTEGRATOR
Info: LANGEVIN DAMPING COEFFICIENT IS 1 INVERSE PS
Info: LANGEVIN DYNAMICS APPLIED TO HYDROGENS
Info: LANGEVIN PISTON PRESSURE CONTROL ACTIVE
Info:        TARGET PRESSURE IS 1.01325 BAR
Info:     OSCILLATION PERIOD IS 50 FS
Info:             DECAY TIME IS 25 FS
Info:     PISTON TEMPERATURE IS 300 K
Info:       PRESSURE CONTROL IS GROUP-BASED
Info:    INITIAL STRAIN RATE IS 0 0 0
Info:       CELL FLUCTUATION IS ISOTROPIC
Info: PARTICLE MESH EWALD (PME) ACTIVE
Info: PME TOLERANCE               1e-06
Info: PME EWALD COEFFICIENT       0.348832
Info: PME INTERPOLATION ORDER     4
Info: PME GRID DIMENSIONS         40 36 32
Info: PME MAXIMUM GRID SPACING    1
Info: FULL ELECTROSTATIC EVALUATION FREQUENCY      2
Info: USING VERLET I (r-RESPA) MTS SCHEME.
Info: C1 SPLITTING OF LONG RANGE ELECTROSTATICS
Info: PLACING ATOMS IN PATCHES BY HYDROGEN GROUPS
Info: RIGID BONDS TO HYDROGEN : ALL
Info:         ERROR TOLERANCE : 1e-08
Info:          MAX ITERATIONS : 100
Info: RIGID WATER USING SETTLE ALGORITHM
Info: RANDOM NUMBER SEED     1744091145
Info: USE HYDROGEN BONDS?    NO
Info: Using AMBER format force field!
Info: AMBER PARM FILE        mobley_7688753.prmtop
Info: COORDINATE PDB         mobley_7688753.pdb
Info: Exclusions will be read from PARM file!
Info: SCNB (VDW SCALING)     2
Info: USING ARITHMETIC MEAN TO COMBINE L-J SIGMA PARAMETERS
Info: BINARY COORDINATES     mobley_7688753_min.coor
Info: SUMMARY OF PARAMETERS:
Info: 9 BONDS
Info: 8 ANGLES
Info:   8 HARMONIC
Info:   0 COSINE-BASED
Info: 5 DIHEDRAL
Info: 0 IMPROPER
Info: 0 CROSSTERM
Info: 0 VDW
Info: 28 VDW_PAIRS
Info: 0 NBTHOLE_PAIRS
Info: STRUCTURE SUMMARY:
Info: 2922 ATOMS
Info: 2922 BONDS
Info: 22 ANGLES
Info: 37 DIHEDRALS
Info: 0 IMPROPERS
Info: 0 CROSSTERMS
Info: 2971 EXCLUSIONS
Info: 15 FIXED ATOMS
Info: 2913 RIGID BONDS
Info: 6 RIGID BONDS BETWEEN FIXED ATOMS
Info: 5814 DEGREES OF FREEDOM
Info: 978 HYDROGEN GROUPS
Info: 3 ATOMS IN LARGEST HYDROGEN GROUP
Info: 978 MIGRATION GROUPS
Info: 3 ATOMS IN LARGEST MIGRATION GROUP
Info: 9 HYDROGEN GROUPS WITH ALL ATOMS FIXED
Info: TOTAL MASS = 17579.6 amu
Info: TOTAL CHARGE = 3.79514e-08 e
Info: MASS DENSITY = 0.683563 g/cm^3
Info: ATOM DENSITY = 0.0684211 atoms/A^3
Info: ADDED 0 IMPLICIT EXCLUSIONS
Info: NONBONDED TABLE R-SQUARED SPACING: 0.0625
Info: NONBONDED TABLE SIZE: 705 POINTS
Info: REMOVING COM VELOCITY -0.0437353 -0.212156 0.175185
TCL: Running for 100000 steps
ETITLE: TS BOND ANGLE DIHED IMPRP ELECT VDW BOUNDARY MISC KINETIC TOTAL TEMP POTENTIAL TOTAL3 TEMPAVG PRESSURE GPRESSURE VOLUME PRESSAVG GPRESSAVG
ENERGY: 0 0.0000 0.0000 0.0000 0.0000 -13578.0931 2359.9491 0.0000 0.0000 1824.0825 -9394.0615 315.7620 -11218.1440 -9393.6983 315.7620 360.2913 395.3167 42706.1494 360.2913 395.3167
ENERGY: 100000 0.0000 0.0000 0.0000 0.0000 -14180.8277 2476.9595 0.0000 0.0000 180.6877 -11523.1805 31.2784 -11703.8682 -11522.5655 30.9811 135.5144 162.4274 28548.0134 3.2247 3.2252
TCL: Running 100000 steps at 60 kelvin.
TCL: Setting parameter langevinTemp to 60
TCL: Running for 100000 steps
ETITLE: TS BOND ANGLE DIHED IMPRP ELECT VDW BOUNDARY MISC KINETIC TOTAL TEMP POTENTIAL TOTAL3 TEMPAVG PRESSURE GPRESSURE VOLUME PRESSAVG GPRESSAVG
ENERGY: 100000 0.0000 0.0000 0.0000 0.0000 -14180.8277 2476.9595 0.0000 0.0000 180.6000 -11523.2682 31.2632 -11703.8682 -11522.8845 31.2632 101.4674 162.5535 28548.0134 101.4674 162.5535
ENERGY: 200000 0.0000 0.0000 0.0000 0.0000 -14084.3321 2452.8618 0.0000 0.0000 347.5701 -11283.9002 60.1669 -11631.4703 -11283.3714 59.9574 239.1317 313.6393 28330.3596 2.8285 2.8629
TCL: Running 100000 steps at 90 kelvin.
TCL: Setting parameter langevinTemp to 90
TCL: Running for 100000 steps
ETITLE: TS BOND ANGLE DIHED IMPRP ELECT VDW BOUNDARY MISC KINETIC TOTAL TEMP POTENTIAL TOTAL3 TEMPAVG PRESSURE GPRESSURE VOLUME PRESSAVG GPRESSAVG
ENERGY: 200000 0.0000 0.0000 0.0000 0.0000 -14084.3321 2452.8618 0.0000 0.0000 347.3988 -11284.0715 60.1373 -11631.4703 -11283.4816 60.1373 251.4386 313.3861 28330.3596 251.4386 313.3861
ENERGY: 300000 0.0000 0.0000 0.0000 0.0000 -13842.1325 2298.1230 0.0000 0.0000 526.0847 -11017.9248 91.0691 -11544.0095 -11016.2208 89.7594 -779.4945 -753.4996 28821.5815 2.8091 2.8030
TCL: Running 100000 steps at 120 kelvin.
TCL: Setting parameter langevinTemp to 120
TCL: Running for 100000 steps
ETITLE: TS BOND ANGLE DIHED IMPRP ELECT VDW BOUNDARY MISC KINETIC TOTAL TEMP POTENTIAL TOTAL3 TEMPAVG PRESSURE GPRESSURE VOLUME PRESSAVG GPRESSAVG
ENERGY: 300000 0.0000 0.0000 0.0000 0.0000 -13842.1325 2298.1230 0.0000 0.0000 525.8226 -11018.1868 91.0237 -11544.0095 -11017.0196 91.0237 -803.8419 -753.3896 28821.5815 -803.8419 -753.3896
ENERGY: 400000 0.0000 0.0000 0.0000 0.0000 -13784.3104 2394.7904 0.0000 0.0000 678.7320 -10710.7880 117.4935 -11389.5200 -10709.2080 119.8343 561.9597 660.1011 28655.0309 4.3045 4.5495
TCL: Running 100000 steps at 150 kelvin.
TCL: Setting parameter langevinTemp to 150
TCL: Running for 100000 steps
ETITLE: TS BOND ANGLE DIHED IMPRP ELECT VDW BOUNDARY MISC KINETIC TOTAL TEMP POTENTIAL TOTAL3 TEMPAVG PRESSURE GPRESSURE VOLUME PRESSAVG GPRESSAVG
ENERGY: 400000 0.0000 0.0000 0.0000 0.0000 -13784.3104 2394.7904 0.0000 0.0000 678.3856 -10711.1344 117.4335 -11389.5200 -10709.9258 117.4335 619.7328 660.4318 28655.0309 619.7328 660.4318
ENERGY: 500000 0.0000 0.0000 0.0000 0.0000 -13437.0756 2194.2103 0.0000 0.0000 864.8744 -10377.9910 149.7161 -11242.8653 -10375.4819 149.6428 -365.5984 -316.4784 28685.6163 3.0918 3.1158
TCL: Running 100000 steps at 180 kelvin.
TCL: Setting parameter langevinTemp to 180
TCL: Running for 100000 steps
ETITLE: TS BOND ANGLE DIHED IMPRP ELECT VDW BOUNDARY MISC KINETIC TOTAL TEMP POTENTIAL TOTAL3 TEMPAVG PRESSURE GPRESSURE VOLUME PRESSAVG GPRESSAVG
ENERGY: 500000 0.0000 0.0000 0.0000 0.0000 -13437.0756 2194.2103 0.0000 0.0000 864.4367 -10378.4286 149.6403 -11242.8653 -10376.8231 149.6403 -366.3565 -315.8354 28685.6163 -366.3565 -315.8354
ENERGY: 600000 0.0000 0.0000 0.0000 0.0000 -13065.6686 2147.9443 0.0000 0.0000 1046.7852 -9870.9391 181.2061 -10917.7244 -9867.9488 179.6729 803.9215 855.8520 28168.5576 4.4539 4.4126
TCL: Running 100000 steps at 210 kelvin.
TCL: Setting parameter langevinTemp to 210
TCL: Running for 100000 steps
ETITLE: TS BOND ANGLE DIHED IMPRP ELECT VDW BOUNDARY MISC KINETIC TOTAL TEMP POTENTIAL TOTAL3 TEMPAVG PRESSURE GPRESSURE VOLUME PRESSAVG GPRESSAVG
ENERGY: 600000 0.0000 0.0000 0.0000 0.0000 -13065.6686 2147.9443 0.0000 0.0000 1046.2476 -9871.4767 181.1131 -10917.7244 -9869.7090 181.1131 783.7570 855.8307 28168.5576 783.7570 855.8307
ENERGY: 700000 0.0000 0.0000 0.0000 0.0000 -12251.3987 1791.8841 0.0000 0.0000 1173.9881 -9285.5265 203.2259 -10459.5146 -9282.2504 210.1272 -667.9192 -604.8898 28678.0191 3.8586 3.5806
TCL: Running 100000 steps at 240 kelvin.
TCL: Setting parameter langevinTemp to 240
TCL: Running for 100000 steps
ETITLE: TS BOND ANGLE DIHED IMPRP ELECT VDW BOUNDARY MISC KINETIC TOTAL TEMP POTENTIAL TOTAL3 TEMPAVG PRESSURE GPRESSURE VOLUME PRESSAVG GPRESSAVG
ENERGY: 700000 0.0000 0.0000 0.0000 0.0000 -12251.3987 1791.8841 0.0000 0.0000 1173.3925 -9286.1221 203.1228 -10459.5146 -9284.3127 203.1228 -673.5756 -605.8571 28678.0191 -673.5756 -605.8571
ENERGY: 800000 0.0000 0.0000 0.0000 0.0000 -11830.1769 1724.6387 0.0000 0.0000 1359.1097 -8746.4285 235.2718 -10105.5382 -8743.0162 240.1086 222.9978 285.0360 28433.7131 0.9291 0.9475
TCL: Running 100000 steps at 270 kelvin.
TCL: Setting parameter langevinTemp to 270
TCL: Running for 100000 steps
ETITLE: TS BOND ANGLE DIHED IMPRP ELECT VDW BOUNDARY MISC KINETIC TOTAL TEMP POTENTIAL TOTAL3 TEMPAVG PRESSURE GPRESSURE VOLUME PRESSAVG GPRESSAVG
ENERGY: 800000 0.0000 0.0000 0.0000 0.0000 -11830.1769 1724.6387 0.0000 0.0000 1358.3928 -8747.1453 235.1477 -10105.5382 -8744.8922 235.1477 217.7601 285.9122 28433.7131 217.7601 285.9122
ENERGY: 900000 0.0000 0.0000 0.0000 0.0000 -11319.8594 1632.2217 0.0000 0.0000 1585.7559 -8101.8817 274.5059 -9687.6377 -8099.4935 270.2798 507.4960 589.2294 29330.9388 3.4534 3.4090
TCL: Running 1000000 steps at 300 kelvin.
TCL: Setting parameter langevinTemp to 300
TCL: Running for 1000000 steps
ETITLE: TS BOND ANGLE DIHED IMPRP ELECT VDW BOUNDARY MISC KINETIC TOTAL TEMP POTENTIAL TOTAL3 TEMPAVG PRESSURE GPRESSURE VOLUME PRESSAVG GPRESSAVG
ENERGY: 900000 0.0000 0.0000 0.0000 0.0000 -11319.8594 1632.2217 0.0000 0.0000 1584.9504 -8102.6872 274.3665 -9687.6377 -8100.4110 274.3665 513.1791 588.2230 29330.9388 513.1791 588.2230
ENERGY: 1100000 0.0000 0.0000 0.0000 0.0000 -10702.1262 1386.3107 0.0000 0.0000 1740.7556 -7575.0599 301.3375 -9315.8155 -7571.6453 300.6730 -788.5395 -658.7760 30450.7091 2.2934 2.2628
ENERGY: 1300000 0.0000 0.0000 0.0000 0.0000 -10816.3990 1512.6131 0.0000 0.0000 1786.3082 -7517.4778 309.2230 -9303.7860 -7514.6372 300.3613 507.1631 584.1512 30302.5158 2.8631 2.9679
ENERGY: 1500000 0.0000 0.0000 0.0000 0.0000 -10558.2632 1361.8521 0.0000 0.0000 1681.2339 -7515.1773 291.0338 -9196.4112 -7510.9162 299.9476 -536.9202 -390.5832 30215.2141 2.9972 2.9722
ENERGY: 1700000 0.0000 0.0000 0.0000 0.0000 -10552.5543 1362.4072 0.0000 0.0000 1775.6619 -7414.4852 307.3800 -9190.1471 -7410.9114 299.8982 -216.1401 -96.4621 29924.5047 3.4243 3.2677
ENERGY: 1900000 0.0000 0.0000 0.0000 0.0000 -10593.2806 1394.9953 0.0000 0.0000 1774.0634 -7424.2219 307.1033 -9198.2853 -7419.5654 299.9274 -135.1267 -31.6150 30518.2429 3.5038 3.5416
TCL: Exiting due to exit command.
