Info: SIMULATION PARAMETERS:
Info: TIMESTEP               2
Info: NUMBER OF STEPS        0
Info: STEPS PER CYCLE        10
Info: PERIODIC CELL BASIS 1  37.38 0 0
Info: PERIODIC CELL BASIS 2  0 35.847 0
Info: PERIODIC CELL BASIS 3  0 0 33.152
Info: PERIODIC CELL CENTER   0 0 0
Info: WRAPPING WATERS AROUND PERIODIC BOUNDARIES ON OUTPUT.
Info: WRAPPING ALL CLUSTERS AROUND PERIODIC BOUNDARIES ON OUTPUT.
Info: FIRST LDB TIMESTEP     50
Info: LAST LDB TIMESTEP     -1
Info: HOM BACKGROUND SCALING 1
Info: PME BACKGROUND SCALING 1
Info: MIN ATOMS PER PATCH    40
Info: EMPTY PATCH LOAD       40 ATOMS
Info: INITIAL TEMPERATURE    300
Info: CENTER OF MASS MOVING INITIALLY? NO
Info: DIELECTRIC             1
Info: EXCLUDE                SCALED ONE-FOUR
Info: 1-4 ELECTROSTATICS SCALED BY 0.833333
Info: MODIFIED 1-4 VDW PARAMETERS WILL BE USED
Info: DCD FILENAME           mobley_766666_equil.dcd
Info: DCD FREQUENCY          100000
Info: DCD FIRST STEP         100000
Info: DCD FILE WILL CONTAIN UNIT CELL DATA
Info: XST FILENAME           mobley_766666_equil.xst
Info: XST FREQUENCY          100000
Info: NO VELOCITY DCD OUTPUT
Info: NO FORCE DCD OUTPUT
Info: OUTPUT FILENAME        mobley_766666_equil
Info: BINARY OUTPUT FILES WILL BE USED
Info: RESTART FILENAME       mobley_766666_equil.restart
Info: RESTART FREQUENCY      100000
Info: BINARY RESTART FILES WILL BE USED
Info: CUTOFF                 9
Info: PAIRLIST DISTANCE      11
Info: PAIRLIST SHRINK RATE   0.01
Info: PAIRLIST GROW RATE     0.01
Info: PAIRLIST TRIGGER       0.3
Info: PAIRLISTS PER CYCLE    2
Info: PAIRLISTS ENABLED
Info: MARGIN                 8
Info: HYDROGEN GROUP CUTOFF  2.5
Info: PATCH DIMENSION        21.5
Info: ENERGY OUTPUT STEPS    100000
Info: ENERGY EVALUATION STEPS    100000
Info: OUTPUT ENERGY PRECISION 4
Info: CROSSTERM ENERGY INCLUDED IN DIHEDRAL
Info: TIMING OUTPUT STEPS    1000000
Info: PRESSURE OUTPUT STEPS  100000
Info: FIXED ATOMS ACTIVE
Info: LANGEVIN DYNAMICS ACTIVE
Info: LANGEVIN TEMPERATURE   30
Info: LANGEVIN USING BBK INTEGRATOR
Info: LANGEVIN DAMPING COEFFICIENT IS 1 INVERSE PS
Info: LANGEVIN DYNAMICS APPLIED TO HYDROGENS
Info: LANGEVIN PISTON PRESSURE CONTROL ACTIVE
Info:        TARGET PRESSURE IS 1.01325 BAR
Info:     OSCILLATION PERIOD IS 50 FS
Info:             DECAY TIME IS 25 FS
Info:     PISTON TEMPERATURE IS 300 K
Info:       PRESSURE CONTROL IS GROUP-BASED
Info:    INITIAL STRAIN RATE IS 0 0 0
Info:       CELL FLUCTUATION IS ISOTROPIC
Info: PARTICLE MESH EWALD (PME) ACTIVE
Info: PME TOLERANCE               1e-06
Info: PME EWALD COEFFICIENT       0.348832
Info: PME INTERPOLATION ORDER     4
Info: PME GRID DIMENSIONS         40 36 36
Info: PME MAXIMUM GRID SPACING    1
Info: FULL ELECTROSTATIC EVALUATION FREQUENCY      2
Info: USING VERLET I (r-RESPA) MTS SCHEME.
Info: C1 SPLITTING OF LONG RANGE ELECTROSTATICS
Info: PLACING ATOMS IN PATCHES BY HYDROGEN GROUPS
Info: RIGID BONDS TO HYDROGEN : ALL
Info:         ERROR TOLERANCE : 1e-08
Info:          MAX ITERATIONS : 100
Info: RIGID WATER USING SETTLE ALGORITHM
Info: RANDOM NUMBER SEED     1743679533
Info: USE HYDROGEN BONDS?    NO
Info: Using AMBER format force field!
Info: AMBER PARM FILE        mobley_766666.prmtop
Info: COORDINATE PDB         mobley_766666.pdb
Info: Exclusions will be read from PARM file!
Info: SCNB (VDW SCALING)     2
Info: USING ARITHMETIC MEAN TO COMBINE L-J SIGMA PARAMETERS
Info: BINARY COORDINATES     mobley_766666_min.coor
Info: SUMMARY OF PARAMETERS:
Info: 5 BONDS
Info: 4 ANGLES
Info:   4 HARMONIC
Info:   0 COSINE-BASED
Info: 2 DIHEDRAL
Info: 0 IMPROPER
Info: 0 CROSSTERM
Info: 0 VDW
Info: 15 VDW_PAIRS
Info: 0 NBTHOLE_PAIRS
Info: STRUCTURE SUMMARY:
Info: 2949 ATOMS
Info: 2948 BONDS
Info: 6 ANGLES
Info: 6 DIHEDRALS
Info: 0 IMPROPERS
Info: 0 CROSSTERMS
Info: 2958 EXCLUSIONS
Info: 6 FIXED ATOMS
Info: 2944 RIGID BONDS
Info: 1 RIGID BONDS BETWEEN FIXED ATOMS
Info: 5886 DEGREES OF FREEDOM
Info: 986 HYDROGEN GROUPS
Info: 3 ATOMS IN LARGEST HYDROGEN GROUP
Info: 986 MIGRATION GROUPS
Info: 3 ATOMS IN LARGEST MIGRATION GROUP
Info: 5 HYDROGEN GROUPS WITH ALL ATOMS FIXED
Info: TOTAL MASS = 17805.1 amu
Info: TOTAL CHARGE = 0.000100002 e
Info: MASS DENSITY = 0.665581 g/cm^3
Info: ATOM DENSITY = 0.0663855 atoms/A^3
Info: ADDED 0 IMPLICIT EXCLUSIONS
Info: NONBONDED TABLE R-SQUARED SPACING: 0.0625
Info: NONBONDED TABLE SIZE: 705 POINTS
Info: REMOVING COM VELOCITY 0.128322 -0.129007 0.0614847
TCL: Running for 100000 steps
ETITLE: TS BOND ANGLE DIHED IMPRP ELECT VDW BOUNDARY MISC KINETIC TOTAL TEMP POTENTIAL TOTAL3 TEMPAVG PRESSURE GPRESSURE VOLUME PRESSAVG GPRESSAVG
ENERGY: 0 0.0000 0.0000 0.0000 0.0000 -13629.5475 2373.3853 0.0000 0.0000 1817.7831 -9438.3791 310.8223 -11256.1622 -9437.9980 310.8223 290.8709 328.1433 44422.3824 290.8709 328.1433
ENERGY: 100000 0.0000 0.0000 0.0000 0.0000 -14351.2909 2569.7468 0.0000 0.0000 169.1994 -11612.3447 28.9314 -11781.5441 -11612.1282 31.0015 523.8508 591.3052 29072.0959 4.3587 4.3932
TCL: Running 100000 steps at 60 kelvin.
TCL: Setting parameter langevinTemp to 60
TCL: Running for 100000 steps
ETITLE: TS BOND ANGLE DIHED IMPRP ELECT VDW BOUNDARY MISC KINETIC TOTAL TEMP POTENTIAL TOTAL3 TEMPAVG PRESSURE GPRESSURE VOLUME PRESSAVG GPRESSAVG
ENERGY: 100000 0.0000 0.0000 0.0000 0.0000 -14351.2909 2569.7468 0.0000 0.0000 169.1101 -11612.4340 28.9161 -11781.5441 -11612.1306 28.9161 531.9805 590.9920 29072.0959 531.9805 590.9920
ENERGY: 200000 0.0000 0.0000 0.0000 0.0000 -14240.0685 2524.3739 0.0000 0.0000 355.4278 -11360.2668 60.7745 -11715.6947 -11359.3876 59.9259 471.6342 502.7651 28877.9146 4.3492 4.2905
TCL: Running 100000 steps at 90 kelvin.
TCL: Setting parameter langevinTemp to 90
TCL: Running for 100000 steps
ETITLE: TS BOND ANGLE DIHED IMPRP ELECT VDW BOUNDARY MISC KINETIC TOTAL TEMP POTENTIAL TOTAL3 TEMPAVG PRESSURE GPRESSURE VOLUME PRESSAVG GPRESSAVG
ENERGY: 200000 0.0000 0.0000 0.0000 0.0000 -14240.0685 2524.3739 0.0000 0.0000 355.2497 -11360.4450 60.7441 -11715.6947 -11359.7389 60.7441 455.0917 502.6597 28877.9146 455.0917 502.6597
ENERGY: 300000 0.0000 0.0000 0.0000 0.0000 -13953.9464 2351.1330 0.0000 0.0000 530.2106 -11072.6027 90.6606 -11602.8134 -11071.4795 89.9284 -316.5077 -290.9360 28931.3550 3.9510 3.8844
TCL: Running 100000 steps at 120 kelvin.
TCL: Setting parameter langevinTemp to 120
TCL: Running for 100000 steps
ETITLE: TS BOND ANGLE DIHED IMPRP ELECT VDW BOUNDARY MISC KINETIC TOTAL TEMP POTENTIAL TOTAL3 TEMPAVG PRESSURE GPRESSURE VOLUME PRESSAVG GPRESSAVG
ENERGY: 300000 0.0000 0.0000 0.0000 0.0000 -13953.9464 2351.1330 0.0000 0.0000 529.9469 -11072.8664 90.6155 -11602.8134 -11071.8334 90.6155 -336.1777 -291.4666 28931.3550 -336.1777 -291.4666
ENERGY: 400000 0.0000 0.0000 0.0000 0.0000 -13778.6540 2313.7084 0.0000 0.0000 684.7355 -10780.2101 117.0828 -11464.9456 -10778.1340 119.9489 -256.7265 -217.3755 29172.2340 4.2140 4.2362
TCL: Running 100000 steps at 150 kelvin.
TCL: Setting parameter langevinTemp to 150
TCL: Running for 100000 steps
ETITLE: TS BOND ANGLE DIHED IMPRP ELECT VDW BOUNDARY MISC KINETIC TOTAL TEMP POTENTIAL TOTAL3 TEMPAVG PRESSURE GPRESSURE VOLUME PRESSAVG GPRESSAVG
ENERGY: 400000 0.0000 0.0000 0.0000 0.0000 -13778.6540 2313.7084 0.0000 0.0000 684.3741 -10780.5715 117.0210 -11464.9456 -10779.1596 117.0210 -274.7901 -217.3212 29172.2340 -274.7901 -217.3212
ENERGY: 500000 0.0000 0.0000 0.0000 0.0000 -13677.8278 2358.3262 0.0000 0.0000 874.2999 -10445.2017 149.4963 -11319.5016 -10441.6629 149.8154 855.9550 914.1673 28534.3706 3.3344 3.3221
TCL: Running 100000 steps at 180 kelvin.
TCL: Setting parameter langevinTemp to 180
TCL: Running for 100000 steps
ETITLE: TS BOND ANGLE DIHED IMPRP ELECT VDW BOUNDARY MISC KINETIC TOTAL TEMP POTENTIAL TOTAL3 TEMPAVG PRESSURE GPRESSURE VOLUME PRESSAVG GPRESSAVG
ENERGY: 500000 0.0000 0.0000 0.0000 0.0000 -13677.8278 2358.3262 0.0000 0.0000 873.8543 -10445.6472 149.4202 -11319.5016 -10444.2678 149.4202 874.3215 916.5184 28534.3706 874.3215 916.5184
ENERGY: 600000 0.0000 0.0000 0.0000 0.0000 -13062.3479 2046.3204 0.0000 0.0000 1038.6342 -9977.3933 177.5958 -11016.0275 -9974.9203 179.9010 -955.7156 -846.8694 29407.5230 4.5554 4.6073
TCL: Running 100000 steps at 210 kelvin.
TCL: Setting parameter langevinTemp to 210
TCL: Running for 100000 steps
ETITLE: TS BOND ANGLE DIHED IMPRP ELECT VDW BOUNDARY MISC KINETIC TOTAL TEMP POTENTIAL TOTAL3 TEMPAVG PRESSURE GPRESSURE VOLUME PRESSAVG GPRESSAVG
ENERGY: 600000 0.0000 0.0000 0.0000 0.0000 -13062.3479 2046.3204 0.0000 0.0000 1038.1032 -9977.9244 177.5050 -11016.0275 -9975.9836 177.5050 -907.4423 -846.2526 29407.5230 -907.4423 -846.2526
ENERGY: 700000 0.0000 0.0000 0.0000 0.0000 -12433.8596 1903.5917 0.0000 0.0000 1227.5401 -9302.7278 209.8968 -10530.2679 -9300.9261 209.5204 14.1549 72.9556 28967.6289 3.1286 3.0754
TCL: Running 100000 steps at 240 kelvin.
TCL: Setting parameter langevinTemp to 240
TCL: Running for 100000 steps
ETITLE: TS BOND ANGLE DIHED IMPRP ELECT VDW BOUNDARY MISC KINETIC TOTAL TEMP POTENTIAL TOTAL3 TEMPAVG PRESSURE GPRESSURE VOLUME PRESSAVG GPRESSAVG
ENERGY: 700000 0.0000 0.0000 0.0000 0.0000 -12433.8596 1903.5917 0.0000 0.0000 1226.8949 -9303.3731 209.7865 -10530.2679 -9301.1457 209.7865 1.6322 72.4173 28967.6289 1.6322 72.4173
ENERGY: 800000 0.0000 0.0000 0.0000 0.0000 -11866.1143 1716.8657 0.0000 0.0000 1394.8433 -8754.4053 238.5039 -10149.2486 -8753.3990 240.2897 -78.9884 25.3308 28889.0547 3.4107 3.5375
TCL: Running 100000 steps at 270 kelvin.
TCL: Setting parameter langevinTemp to 270
TCL: Running for 100000 steps
ETITLE: TS BOND ANGLE DIHED IMPRP ELECT VDW BOUNDARY MISC KINETIC TOTAL TEMP POTENTIAL TOTAL3 TEMPAVG PRESSURE GPRESSURE VOLUME PRESSAVG GPRESSAVG
ENERGY: 800000 0.0000 0.0000 0.0000 0.0000 -11866.1143 1716.8657 0.0000 0.0000 1394.1684 -8755.0802 238.3885 -10149.2486 -8752.7747 238.3885 -50.2111 23.8229 28889.0547 -50.2111 23.8229
ENERGY: 900000 0.0000 0.0000 0.0000 0.0000 -11325.0271 1563.6795 0.0000 0.0000 1578.9920 -8182.3555 269.9915 -9761.3475 -8181.2433 269.7055 -223.5419 -138.3005 29570.2318 2.4255 2.4550
TCL: Running 1000000 steps at 300 kelvin.
TCL: Setting parameter langevinTemp to 300
TCL: Running for 1000000 steps
ETITLE: TS BOND ANGLE DIHED IMPRP ELECT VDW BOUNDARY MISC KINETIC TOTAL TEMP POTENTIAL TOTAL3 TEMPAVG PRESSURE GPRESSURE VOLUME PRESSAVG GPRESSAVG
ENERGY: 900000 0.0000 0.0000 0.0000 0.0000 -11325.0271 1563.6795 0.0000 0.0000 1578.1881 -8183.1595 269.8540 -9761.3475 -8181.2482 269.8540 -221.1318 -138.9604 29570.2318 -221.1318 -138.9604
ENERGY: 1100000 0.0000 0.0000 0.0000 0.0000 -10671.6006 1374.7652 0.0000 0.0000 1738.3825 -7558.4530 297.2456 -9296.8354 -7554.5703 300.6989 -517.8694 -401.5341 30239.9863 4.0899 3.8811
ENERGY: 1300000 0.0000 0.0000 0.0000 0.0000 -10593.1413 1366.7726 0.0000 0.0000 1753.3607 -7473.0081 299.8067 -9226.3687 -7471.7492 299.7184 -535.6016 -418.0705 30554.1106 3.0569 2.8796
ENERGY: 1500000 0.0000 0.0000 0.0000 0.0000 -10733.5391 1362.2393 0.0000 0.0000 1717.5794 -7653.7203 293.6885 -9371.2997 -7652.0080 300.1455 -873.3563 -787.1813 30589.9320 2.5815 2.4187
ENERGY: 1700000 0.0000 0.0000 0.0000 0.0000 -10680.6031 1408.1813 0.0000 0.0000 1800.7517 -7471.6700 307.9101 -9272.4217 -7469.5131 300.4957 -317.8947 -228.2584 30636.4113 3.8167 3.8799
ENERGY: 1900000 0.0000 0.0000 0.0000 0.0000 -10803.2171 1498.9656 0.0000 0.0000 1745.9189 -7558.3326 298.5343 -9304.2515 -7556.0011 300.2066 320.1931 419.8678 30547.4212 3.4587 3.6293
TCL: Exiting due to exit command.
