Info: SIMULATION PARAMETERS:
Info: TIMESTEP               2
Info: NUMBER OF STEPS        0
Info: STEPS PER CYCLE        10
Info: PERIODIC CELL BASIS 1  37.133 0 0
Info: PERIODIC CELL BASIS 2  0 35.411 0
Info: PERIODIC CELL BASIS 3  0 0 33.27
Info: PERIODIC CELL CENTER   0 0 0
Info: WRAPPING WATERS AROUND PERIODIC BOUNDARIES ON OUTPUT.
Info: WRAPPING ALL CLUSTERS AROUND PERIODIC BOUNDARIES ON OUTPUT.
Info: FIRST LDB TIMESTEP     50
Info: LAST LDB TIMESTEP     -1
Info: HOM BACKGROUND SCALING 1
Info: PME BACKGROUND SCALING 1
Info: MIN ATOMS PER PATCH    40
Info: EMPTY PATCH LOAD       40 ATOMS
Info: INITIAL TEMPERATURE    300
Info: CENTER OF MASS MOVING INITIALLY? NO
Info: DIELECTRIC             1
Info: EXCLUDE                SCALED ONE-FOUR
Info: 1-4 ELECTROSTATICS SCALED BY 0.833333
Info: MODIFIED 1-4 VDW PARAMETERS WILL BE USED
Info: DCD FILENAME           mobley_8809274_equil.dcd
Info: DCD FREQUENCY          100000
Info: DCD FIRST STEP         100000
Info: DCD FILE WILL CONTAIN UNIT CELL DATA
Info: XST FILENAME           mobley_8809274_equil.xst
Info: XST FREQUENCY          100000
Info: NO VELOCITY DCD OUTPUT
Info: NO FORCE DCD OUTPUT
Info: OUTPUT FILENAME        mobley_8809274_equil
Info: BINARY OUTPUT FILES WILL BE USED
Info: RESTART FILENAME       mobley_8809274_equil.restart
Info: RESTART FREQUENCY      100000
Info: BINARY RESTART FILES WILL BE USED
Info: CUTOFF                 9
Info: PAIRLIST DISTANCE      11
Info: PAIRLIST SHRINK RATE   0.01
Info: PAIRLIST GROW RATE     0.01
Info: PAIRLIST TRIGGER       0.3
Info: PAIRLISTS PER CYCLE    2
Info: PAIRLISTS ENABLED
Info: MARGIN                 8
Info: HYDROGEN GROUP CUTOFF  2.5
Info: PATCH DIMENSION        21.5
Info: ENERGY OUTPUT STEPS    100000
Info: ENERGY EVALUATION STEPS    100000
Info: OUTPUT ENERGY PRECISION 4
Info: CROSSTERM ENERGY INCLUDED IN DIHEDRAL
Info: TIMING OUTPUT STEPS    1000000
Info: PRESSURE OUTPUT STEPS  100000
Info: FIXED ATOMS ACTIVE
Info: LANGEVIN DYNAMICS ACTIVE
Info: LANGEVIN TEMPERATURE   30
Info: LANGEVIN USING BBK INTEGRATOR
Info: LANGEVIN DAMPING COEFFICIENT IS 1 INVERSE PS
Info: LANGEVIN DYNAMICS APPLIED TO HYDROGENS
Info: LANGEVIN PISTON PRESSURE CONTROL ACTIVE
Info:        TARGET PRESSURE IS 1.01325 BAR
Info:     OSCILLATION PERIOD IS 50 FS
Info:             DECAY TIME IS 25 FS
Info:     PISTON TEMPERATURE IS 300 K
Info:       PRESSURE CONTROL IS GROUP-BASED
Info:    INITIAL STRAIN RATE IS 0 0 0
Info:       CELL FLUCTUATION IS ISOTROPIC
Info: PARTICLE MESH EWALD (PME) ACTIVE
Info: PME TOLERANCE               1e-06
Info: PME EWALD COEFFICIENT       0.348832
Info: PME INTERPOLATION ORDER     4
Info: PME GRID DIMENSIONS         40 36 36
Info: PME MAXIMUM GRID SPACING    1
Info: FULL ELECTROSTATIC EVALUATION FREQUENCY      2
Info: USING VERLET I (r-RESPA) MTS SCHEME.
Info: C1 SPLITTING OF LONG RANGE ELECTROSTATICS
Info: PLACING ATOMS IN PATCHES BY HYDROGEN GROUPS
Info: RIGID BONDS TO HYDROGEN : ALL
Info:         ERROR TOLERANCE : 1e-08
Info:          MAX ITERATIONS : 100
Info: RIGID WATER USING SETTLE ALGORITHM
Info: RANDOM NUMBER SEED     1743738937
Info: USE HYDROGEN BONDS?    NO
Info: Using AMBER format force field!
Info: AMBER PARM FILE        mobley_8809274.prmtop
Info: COORDINATE PDB         mobley_8809274.pdb
Info: Exclusions will be read from PARM file!
Info: SCNB (VDW SCALING)     2
Info: USING ARITHMETIC MEAN TO COMBINE L-J SIGMA PARAMETERS
Info: BINARY COORDINATES     mobley_8809274_min.coor
Info: SUMMARY OF PARAMETERS:
Info: 6 BONDS
Info: 5 ANGLES
Info:   5 HARMONIC
Info:   0 COSINE-BASED
Info: 3 DIHEDRAL
Info: 0 IMPROPER
Info: 0 CROSSTERM
Info: 0 VDW
Info: 21 VDW_PAIRS
Info: 0 NBTHOLE_PAIRS
Info: STRUCTURE SUMMARY:
Info: 2904 ATOMS
Info: 2904 BONDS
Info: 24 ANGLES
Info: 36 DIHEDRALS
Info: 0 IMPROPERS
Info: 0 CROSSTERMS
Info: 2955 EXCLUSIONS
Info: 15 FIXED ATOMS
Info: 2894 RIGID BONDS
Info: 5 RIGID BONDS BETWEEN FIXED ATOMS
Info: 5778 DEGREES OF FREEDOM
Info: 973 HYDROGEN GROUPS
Info: 3 ATOMS IN LARGEST HYDROGEN GROUP
Info: 973 MIGRATION GROUPS
Info: 3 ATOMS IN LARGEST MIGRATION GROUP
Info: 10 HYDROGEN GROUPS WITH ALL ATOMS FIXED
Info: TOTAL MASS = 17495.5 amu
Info: TOTAL CHARGE = 9.99644e-05 e
Info: MASS DENSITY = 0.664102 g/cm^3
Info: ATOM DENSITY = 0.0663813 atoms/A^3
Info: ADDED 0 IMPLICIT EXCLUSIONS
Info: NONBONDED TABLE R-SQUARED SPACING: 0.0625
Info: NONBONDED TABLE SIZE: 705 POINTS
Info: REMOVING COM VELOCITY 2.47604e-05 -0.0202686 -0.106929
TCL: Running for 100000 steps
ETITLE: TS BOND ANGLE DIHED IMPRP ELECT VDW BOUNDARY MISC KINETIC TOTAL TEMP POTENTIAL TOTAL3 TEMPAVG PRESSURE GPRESSURE VOLUME PRESSAVG GPRESSAVG
ENERGY: 0 0.0000 0.0000 0.0000 0.0000 -13427.4990 2343.9592 0.0000 0.0000 1686.5782 -9396.9617 293.7780 -11083.5399 -9396.6517 293.7780 405.0923 440.3530 43747.2774 405.0923 440.3530
ENERGY: 100000 0.0000 0.0000 0.0000 0.0000 -14065.9303 2464.9685 0.0000 0.0000 171.1613 -11429.8005 29.8139 -11600.9618 -11429.2113 30.9684 217.5643 289.0227 28687.6987 4.5603 4.5262
TCL: Running 100000 steps at 60 kelvin.
TCL: Setting parameter langevinTemp to 60
TCL: Running for 100000 steps
ETITLE: TS BOND ANGLE DIHED IMPRP ELECT VDW BOUNDARY MISC KINETIC TOTAL TEMP POTENTIAL TOTAL3 TEMPAVG PRESSURE GPRESSURE VOLUME PRESSAVG GPRESSAVG
ENERGY: 100000 0.0000 0.0000 0.0000 0.0000 -14065.9303 2464.9685 0.0000 0.0000 171.0748 -11429.8870 29.7988 -11600.9618 -11429.5775 29.7988 222.7516 289.2904 28687.6987 222.7516 289.2904
ENERGY: 200000 0.0000 0.0000 0.0000 0.0000 -13972.6583 2447.7317 0.0000 0.0000 351.6841 -11173.2424 61.2584 -11524.9266 -11172.0021 59.9498 574.5989 656.4781 28372.9543 5.0057 4.9991
TCL: Running 100000 steps at 90 kelvin.
TCL: Setting parameter langevinTemp to 90
TCL: Running for 100000 steps
ETITLE: TS BOND ANGLE DIHED IMPRP ELECT VDW BOUNDARY MISC KINETIC TOTAL TEMP POTENTIAL TOTAL3 TEMPAVG PRESSURE GPRESSURE VOLUME PRESSAVG GPRESSAVG
ENERGY: 200000 0.0000 0.0000 0.0000 0.0000 -13972.6583 2447.7317 0.0000 0.0000 351.5128 -11173.4137 61.2286 -11524.9266 -11172.6271 61.2286 599.2618 656.3324 28372.9543 599.2618 656.3324
ENERGY: 300000 0.0000 0.0000 0.0000 0.0000 -13697.1383 2245.2088 0.0000 0.0000 516.7439 -10935.1857 90.0095 -11451.9295 -10933.1210 90.0038 -795.4117 -737.6540 28557.2667 4.2618 4.2553
TCL: Running 100000 steps at 120 kelvin.
TCL: Setting parameter langevinTemp to 120
TCL: Running for 100000 steps
ETITLE: TS BOND ANGLE DIHED IMPRP ELECT VDW BOUNDARY MISC KINETIC TOTAL TEMP POTENTIAL TOTAL3 TEMPAVG PRESSURE GPRESSURE VOLUME PRESSAVG GPRESSAVG
ENERGY: 300000 0.0000 0.0000 0.0000 0.0000 -13697.1383 2245.2088 0.0000 0.0000 516.4730 -10935.4566 89.9623 -11451.9295 -10934.1062 89.9623 -789.4640 -737.4296 28557.2667 -789.4640 -737.4296
ENERGY: 400000 0.0000 0.0000 0.0000 0.0000 -13635.1914 2303.7612 0.0000 0.0000 703.9862 -10627.4440 122.6244 -11331.4302 -10626.2549 120.0717 207.2020 259.4827 28197.8416 4.8677 4.7607
TCL: Running 100000 steps at 150 kelvin.
TCL: Setting parameter langevinTemp to 150
TCL: Running for 100000 steps
ETITLE: TS BOND ANGLE DIHED IMPRP ELECT VDW BOUNDARY MISC KINETIC TOTAL TEMP POTENTIAL TOTAL3 TEMPAVG PRESSURE GPRESSURE VOLUME PRESSAVG GPRESSAVG
ENERGY: 400000 0.0000 0.0000 0.0000 0.0000 -13635.1914 2303.7612 0.0000 0.0000 703.6376 -10627.7925 122.5637 -11331.4302 -10626.5761 122.5637 204.3499 258.7424 28197.8416 204.3499 258.7424
ENERGY: 500000 0.0000 0.0000 0.0000 0.0000 -13317.3073 2131.1320 0.0000 0.0000 854.0061 -10332.1692 148.7558 -11186.1753 -10330.3283 150.1846 -711.6563 -654.8831 28259.8563 3.2623 3.1819
TCL: Running 100000 steps at 180 kelvin.
TCL: Setting parameter langevinTemp to 180
TCL: Running for 100000 steps
ETITLE: TS BOND ANGLE DIHED IMPRP ELECT VDW BOUNDARY MISC KINETIC TOTAL TEMP POTENTIAL TOTAL3 TEMPAVG PRESSURE GPRESSURE VOLUME PRESSAVG GPRESSAVG
ENERGY: 500000 0.0000 0.0000 0.0000 0.0000 -13317.3073 2131.1320 0.0000 0.0000 853.5831 -10332.5922 148.6821 -11186.1753 -10331.0353 148.6821 -703.7223 -655.6081 28259.8563 -703.7223 -655.6081
ENERGY: 600000 0.0000 0.0000 0.0000 0.0000 -12843.5912 2004.5673 0.0000 0.0000 1012.1207 -9826.9031 176.2971 -10839.0239 -9825.2962 180.1314 -654.5608 -598.6020 28677.3045 2.7973 2.8374
TCL: Running 100000 steps at 210 kelvin.
TCL: Setting parameter langevinTemp to 210
TCL: Running for 100000 steps
ETITLE: TS BOND ANGLE DIHED IMPRP ELECT VDW BOUNDARY MISC KINETIC TOTAL TEMP POTENTIAL TOTAL3 TEMPAVG PRESSURE GPRESSURE VOLUME PRESSAVG GPRESSAVG
ENERGY: 600000 0.0000 0.0000 0.0000 0.0000 -12843.5912 2004.5673 0.0000 0.0000 1011.5884 -9827.4355 176.2044 -10839.0239 -9825.2516 176.2044 -652.1408 -599.2543 28677.3045 -652.1408 -599.2543
ENERGY: 700000 0.0000 0.0000 0.0000 0.0000 -12321.0088 1880.8743 0.0000 0.0000 1172.9683 -9267.1661 204.3145 -10440.1344 -9266.2910 209.6261 -161.5909 -80.3917 28531.4686 3.4807 3.5189
TCL: Running 100000 steps at 240 kelvin.
TCL: Setting parameter langevinTemp to 240
TCL: Running for 100000 steps
ETITLE: TS BOND ANGLE DIHED IMPRP ELECT VDW BOUNDARY MISC KINETIC TOTAL TEMP POTENTIAL TOTAL3 TEMPAVG PRESSURE GPRESSURE VOLUME PRESSAVG GPRESSAVG
ENERGY: 700000 0.0000 0.0000 0.0000 0.0000 -12321.0088 1880.8743 0.0000 0.0000 1172.3416 -9267.7928 204.2053 -10440.1344 -9265.5902 204.2053 -163.0292 -83.7210 28531.4686 -163.0292 -83.7210
ENERGY: 800000 0.0000 0.0000 0.0000 0.0000 -11724.2303 1746.2728 0.0000 0.0000 1367.6564 -8610.3011 238.2264 -9977.9575 -8607.4948 240.0817 350.9074 429.8984 28607.8875 3.8647 4.0594
TCL: Running 100000 steps at 270 kelvin.
TCL: Setting parameter langevinTemp to 270
TCL: Running for 100000 steps
ETITLE: TS BOND ANGLE DIHED IMPRP ELECT VDW BOUNDARY MISC KINETIC TOTAL TEMP POTENTIAL TOTAL3 TEMPAVG PRESSURE GPRESSURE VOLUME PRESSAVG GPRESSAVG
ENERGY: 800000 0.0000 0.0000 0.0000 0.0000 -11724.2303 1746.2728 0.0000 0.0000 1366.9592 -8610.9984 238.1049 -9977.9575 -8608.7890 238.1049 340.5103 428.8769 28607.8875 340.5103 428.8769
ENERGY: 900000 0.0000 0.0000 0.0000 0.0000 -11028.3366 1498.7113 0.0000 0.0000 1518.4946 -8011.1306 264.5003 -9529.6252 -8008.0461 270.1971 -450.6863 -419.2739 29539.2890 3.9447 3.9229
TCL: Running 1000000 steps at 300 kelvin.
TCL: Setting parameter langevinTemp to 300
TCL: Running for 1000000 steps
ETITLE: TS BOND ANGLE DIHED IMPRP ELECT VDW BOUNDARY MISC KINETIC TOTAL TEMP POTENTIAL TOTAL3 TEMPAVG PRESSURE GPRESSURE VOLUME PRESSAVG GPRESSAVG
ENERGY: 900000 0.0000 0.0000 0.0000 0.0000 -11028.3366 1498.7113 0.0000 0.0000 1517.7501 -8011.8751 264.3706 -9529.6252 -8009.9570 264.3706 -499.8048 -420.2356 29539.2890 -499.8048 -420.2356
ENERGY: 1100000 0.0000 0.0000 0.0000 0.0000 -10593.2766 1450.6650 0.0000 0.0000 1697.4599 -7445.1517 295.6735 -9142.6116 -7441.4432 300.6890 343.8609 371.9327 29981.3201 2.7469 2.6270
ENERGY: 1300000 0.0000 0.0000 0.0000 0.0000 -10617.9481 1431.1117 0.0000 0.0000 1720.3711 -7466.4653 299.6643 -9186.8364 -7461.0936 300.0486 105.4186 192.9358 29696.2410 3.6473 3.6939
ENERGY: 1500000 0.0000 0.0000 0.0000 0.0000 -10613.2785 1411.8240 0.0000 0.0000 1732.4312 -7469.0233 301.7650 -9201.4545 -7466.0214 300.3670 -55.9670 147.2376 29812.6372 3.9021 3.8903
ENERGY: 1700000 0.0000 0.0000 0.0000 0.0000 -10638.9720 1487.1571 0.0000 0.0000 1703.0840 -7448.7309 296.6531 -9151.8149 -7444.1695 300.2776 703.8771 786.0249 29724.6493 3.6510 3.5196
ENERGY: 1900000 0.0000 0.0000 0.0000 0.0000 -10671.7994 1470.3008 0.0000 0.0000 1688.5521 -7512.9466 294.1219 -9201.4986 -7509.6939 299.5595 451.3654 512.9832 29617.4959 3.8253 3.6762
TCL: Exiting due to exit command.
