Info: SIMULATION PARAMETERS:
Info: TIMESTEP               2
Info: NUMBER OF STEPS        0
Info: STEPS PER CYCLE        10
Info: PERIODIC CELL BASIS 1  39.512 0 0
Info: PERIODIC CELL BASIS 2  0 35.779 0
Info: PERIODIC CELL BASIS 3  0 0 31.061
Info: PERIODIC CELL CENTER   0 0 0
Info: WRAPPING WATERS AROUND PERIODIC BOUNDARIES ON OUTPUT.
Info: WRAPPING ALL CLUSTERS AROUND PERIODIC BOUNDARIES ON OUTPUT.
Info: FIRST LDB TIMESTEP     50
Info: LAST LDB TIMESTEP     -1
Info: HOM BACKGROUND SCALING 1
Info: PME BACKGROUND SCALING 1
Info: MIN ATOMS PER PATCH    40
Info: EMPTY PATCH LOAD       40 ATOMS
Info: INITIAL TEMPERATURE    300
Info: CENTER OF MASS MOVING INITIALLY? NO
Info: DIELECTRIC             1
Info: EXCLUDE                SCALED ONE-FOUR
Info: 1-4 ELECTROSTATICS SCALED BY 0.833333
Info: MODIFIED 1-4 VDW PARAMETERS WILL BE USED
Info: DCD FILENAME           mobley_4371692_equil.dcd
Info: DCD FREQUENCY          100000
Info: DCD FIRST STEP         100000
Info: DCD FILE WILL CONTAIN UNIT CELL DATA
Info: XST FILENAME           mobley_4371692_equil.xst
Info: XST FREQUENCY          100000
Info: NO VELOCITY DCD OUTPUT
Info: NO FORCE DCD OUTPUT
Info: OUTPUT FILENAME        mobley_4371692_equil
Info: BINARY OUTPUT FILES WILL BE USED
Info: RESTART FILENAME       mobley_4371692_equil.restart
Info: RESTART FREQUENCY      100000
Info: BINARY RESTART FILES WILL BE USED
Info: CUTOFF                 9
Info: PAIRLIST DISTANCE      11
Info: PAIRLIST SHRINK RATE   0.01
Info: PAIRLIST GROW RATE     0.01
Info: PAIRLIST TRIGGER       0.3
Info: PAIRLISTS PER CYCLE    2
Info: PAIRLISTS ENABLED
Info: MARGIN                 8
Info: HYDROGEN GROUP CUTOFF  2.5
Info: PATCH DIMENSION        21.5
Info: ENERGY OUTPUT STEPS    100000
Info: ENERGY EVALUATION STEPS    100000
Info: OUTPUT ENERGY PRECISION 4
Info: CROSSTERM ENERGY INCLUDED IN DIHEDRAL
Info: TIMING OUTPUT STEPS    1000000
Info: PRESSURE OUTPUT STEPS  100000
Info: FIXED ATOMS ACTIVE
Info: LANGEVIN DYNAMICS ACTIVE
Info: LANGEVIN TEMPERATURE   30
Info: LANGEVIN USING BBK INTEGRATOR
Info: LANGEVIN DAMPING COEFFICIENT IS 1 INVERSE PS
Info: LANGEVIN DYNAMICS APPLIED TO HYDROGENS
Info: LANGEVIN PISTON PRESSURE CONTROL ACTIVE
Info:        TARGET PRESSURE IS 1.01325 BAR
Info:     OSCILLATION PERIOD IS 50 FS
Info:             DECAY TIME IS 25 FS
Info:     PISTON TEMPERATURE IS 300 K
Info:       PRESSURE CONTROL IS GROUP-BASED
Info:    INITIAL STRAIN RATE IS 0 0 0
Info:       CELL FLUCTUATION IS ISOTROPIC
Info: PARTICLE MESH EWALD (PME) ACTIVE
Info: PME TOLERANCE               1e-06
Info: PME EWALD COEFFICIENT       0.348832
Info: PME INTERPOLATION ORDER     4
Info: PME GRID DIMENSIONS         40 36 32
Info: PME MAXIMUM GRID SPACING    1
Info: FULL ELECTROSTATIC EVALUATION FREQUENCY      2
Info: USING VERLET I (r-RESPA) MTS SCHEME.
Info: C1 SPLITTING OF LONG RANGE ELECTROSTATICS
Info: PLACING ATOMS IN PATCHES BY HYDROGEN GROUPS
Info: RIGID BONDS TO HYDROGEN : ALL
Info:         ERROR TOLERANCE : 1e-08
Info:          MAX ITERATIONS : 100
Info: RIGID WATER USING SETTLE ALGORITHM
Info: RANDOM NUMBER SEED     1743765445
Info: USE HYDROGEN BONDS?    NO
Info: Using AMBER format force field!
Info: AMBER PARM FILE        mobley_4371692.prmtop
Info: COORDINATE PDB         mobley_4371692.pdb
Info: Exclusions will be read from PARM file!
Info: SCNB (VDW SCALING)     2
Info: USING ARITHMETIC MEAN TO COMBINE L-J SIGMA PARAMETERS
Info: BINARY COORDINATES     mobley_4371692_min.coor
Info: SUMMARY OF PARAMETERS:
Info: 10 BONDS
Info: 10 ANGLES
Info:   10 HARMONIC
Info:   0 COSINE-BASED
Info: 6 DIHEDRAL
Info: 0 IMPROPER
Info: 0 CROSSTERM
Info: 0 VDW
Info: 36 VDW_PAIRS
Info: 0 NBTHOLE_PAIRS
Info: STRUCTURE SUMMARY:
Info: 2925 ATOMS
Info: 2927 BONDS
Info: 46 ANGLES
Info: 85 DIHEDRALS
Info: 0 IMPROPERS
Info: 0 CROSSTERMS
Info: 3034 EXCLUSIONS
Info: 27 FIXED ATOMS
Info: 2907 RIGID BONDS
Info: 9 RIGID BONDS BETWEEN FIXED ATOMS
Info: 5796 DEGREES OF FREEDOM
Info: 984 HYDROGEN GROUPS
Info: 3 ATOMS IN LARGEST HYDROGEN GROUP
Info: 984 MIGRATION GROUPS
Info: 3 ATOMS IN LARGEST MIGRATION GROUP
Info: 18 HYDROGEN GROUPS WITH ALL ATOMS FIXED
Info: TOTAL MASS = 17642.7 amu
Info: TOTAL CHARGE = 0.000100076 e
Info: MASS DENSITY = 0.667192 g/cm^3
Info: ATOM DENSITY = 0.0666121 atoms/A^3
Info: ADDED 0 IMPLICIT EXCLUSIONS
Info: NONBONDED TABLE R-SQUARED SPACING: 0.0625
Info: NONBONDED TABLE SIZE: 705 POINTS
Info: REMOVING COM VELOCITY 0.0984637 -0.00952386 0.276327
TCL: Running for 100000 steps
ETITLE: TS BOND ANGLE DIHED IMPRP ELECT VDW BOUNDARY MISC KINETIC TOTAL TEMP POTENTIAL TOTAL3 TEMPAVG PRESSURE GPRESSURE VOLUME PRESSAVG GPRESSAVG
ENERGY: 0 0.0000 0.0000 0.0000 0.0000 -13655.0133 2344.8412 0.0000 0.0000 1754.1545 -9556.0177 304.6000 -11310.1721 -9555.6475 304.6000 308.4484 338.9620 43910.9310 308.4484 338.9620
ENERGY: 100000 0.0000 0.0000 0.0000 0.0000 -14234.6532 2420.0627 0.0000 0.0000 170.5032 -11644.0872 29.6070 -11814.5905 -11643.7326 30.9401 -139.9526 -71.8897 28451.1735 4.9065 4.9577
TCL: Running 100000 steps at 60 kelvin.
TCL: Setting parameter langevinTemp to 60
TCL: Running for 100000 steps
ETITLE: TS BOND ANGLE DIHED IMPRP ELECT VDW BOUNDARY MISC KINETIC TOTAL TEMP POTENTIAL TOTAL3 TEMPAVG PRESSURE GPRESSURE VOLUME PRESSAVG GPRESSAVG
ENERGY: 100000 0.0000 0.0000 0.0000 0.0000 -14234.6532 2420.0627 0.0000 0.0000 170.4130 -11644.1775 29.5913 -11814.5905 -11643.9083 29.5913 -138.2369 -71.8284 28451.1735 -138.2369 -71.8284
ENERGY: 200000 0.0000 0.0000 0.0000 0.0000 -14089.4810 2380.9686 0.0000 0.0000 335.0680 -11373.4444 58.1828 -11708.5124 -11372.2621 59.9304 -243.9926 -181.2056 28878.8796 5.0235 4.9506
TCL: Running 100000 steps at 90 kelvin.
TCL: Setting parameter langevinTemp to 90
TCL: Running for 100000 steps
ETITLE: TS BOND ANGLE DIHED IMPRP ELECT VDW BOUNDARY MISC KINETIC TOTAL TEMP POTENTIAL TOTAL3 TEMPAVG PRESSURE GPRESSURE VOLUME PRESSAVG GPRESSAVG
ENERGY: 200000 0.0000 0.0000 0.0000 0.0000 -14089.4810 2380.9686 0.0000 0.0000 334.8836 -11373.6288 58.1508 -11708.5124 -11373.0016 58.1508 -238.7759 -180.5036 28878.8796 -238.7759 -180.5036
ENERGY: 300000 0.0000 0.0000 0.0000 0.0000 -13960.7078 2339.9581 0.0000 0.0000 519.4765 -11101.2732 90.2044 -11620.7497 -11100.1343 90.0213 -110.1627 -43.2222 28721.2210 4.2943 4.3000
TCL: Running 100000 steps at 120 kelvin.
TCL: Setting parameter langevinTemp to 120
TCL: Running for 100000 steps
ETITLE: TS BOND ANGLE DIHED IMPRP ELECT VDW BOUNDARY MISC KINETIC TOTAL TEMP POTENTIAL TOTAL3 TEMPAVG PRESSURE GPRESSURE VOLUME PRESSAVG GPRESSAVG
ENERGY: 300000 0.0000 0.0000 0.0000 0.0000 -13960.7078 2339.9581 0.0000 0.0000 519.2136 -11101.5361 90.1588 -11620.7497 -11100.3712 90.1588 -90.4142 -42.4201 28721.2210 -90.4142 -42.4201
ENERGY: 400000 0.0000 0.0000 0.0000 0.0000 -13685.8231 2224.2714 0.0000 0.0000 696.5578 -10764.9939 120.9537 -11461.5517 -10763.3974 119.9061 -328.9110 -299.6826 28683.0492 3.0535 3.0042
TCL: Running 100000 steps at 150 kelvin.
TCL: Setting parameter langevinTemp to 150
TCL: Running for 100000 steps
ETITLE: TS BOND ANGLE DIHED IMPRP ELECT VDW BOUNDARY MISC KINETIC TOTAL TEMP POTENTIAL TOTAL3 TEMPAVG PRESSURE GPRESSURE VOLUME PRESSAVG GPRESSAVG
ENERGY: 400000 0.0000 0.0000 0.0000 0.0000 -13685.8231 2224.2714 0.0000 0.0000 696.1995 -10765.3522 120.8915 -11461.5517 -10763.6248 120.8915 -357.7419 -300.1711 28683.0492 -357.7419 -300.1711
ENERGY: 500000 0.0000 0.0000 0.0000 0.0000 -13574.6433 2200.1217 0.0000 0.0000 834.0591 -10540.4625 144.8301 -11374.5216 -10539.3520 149.8917 -346.3718 -287.1918 28705.2235 2.5597 2.5571
TCL: Running 100000 steps at 180 kelvin.
TCL: Setting parameter langevinTemp to 180
TCL: Running for 100000 steps
ETITLE: TS BOND ANGLE DIHED IMPRP ELECT VDW BOUNDARY MISC KINETIC TOTAL TEMP POTENTIAL TOTAL3 TEMPAVG PRESSURE GPRESSURE VOLUME PRESSAVG GPRESSAVG
ENERGY: 500000 0.0000 0.0000 0.0000 0.0000 -13574.6433 2200.1217 0.0000 0.0000 833.6516 -10540.8700 144.7593 -11374.5216 -10539.0613 144.7593 -331.8777 -287.9523 28705.2235 -331.8777 -287.9523
ENERGY: 600000 0.0000 0.0000 0.0000 0.0000 -13113.5603 2057.2027 0.0000 0.0000 1041.3576 -10015.0000 180.8264 -11056.3576 -10011.9479 179.7937 -50.6920 -38.3983 28451.4707 4.2866 4.2850
TCL: Running 100000 steps at 210 kelvin.
TCL: Setting parameter langevinTemp to 210
TCL: Running for 100000 steps
ETITLE: TS BOND ANGLE DIHED IMPRP ELECT VDW BOUNDARY MISC KINETIC TOTAL TEMP POTENTIAL TOTAL3 TEMPAVG PRESSURE GPRESSURE VOLUME PRESSAVG GPRESSAVG
ENERGY: 600000 0.0000 0.0000 0.0000 0.0000 -13113.5603 2057.2027 0.0000 0.0000 1040.8428 -10015.5148 180.7370 -11056.3576 -10013.6683 180.7370 -97.6561 -38.1890 28451.4707 -97.6561 -38.1890
ENERGY: 700000 0.0000 0.0000 0.0000 0.0000 -12309.5768 1753.1262 0.0000 0.0000 1198.5570 -9357.8936 208.1233 -10556.4506 -9355.8553 210.0288 -610.5276 -537.0663 28397.6257 2.9915 2.9040
TCL: Running 100000 steps at 240 kelvin.
TCL: Setting parameter langevinTemp to 240
TCL: Running for 100000 steps
ETITLE: TS BOND ANGLE DIHED IMPRP ELECT VDW BOUNDARY MISC KINETIC TOTAL TEMP POTENTIAL TOTAL3 TEMPAVG PRESSURE GPRESSURE VOLUME PRESSAVG GPRESSAVG
ENERGY: 700000 0.0000 0.0000 0.0000 0.0000 -12309.5768 1753.1262 0.0000 0.0000 1197.9532 -9358.4973 208.0185 -10556.4506 -9356.7711 208.0185 -619.9161 -537.9709 28397.6257 -619.9161 -537.9709
ENERGY: 800000 0.0000 0.0000 0.0000 0.0000 -11805.5953 1672.7795 0.0000 0.0000 1397.9555 -8734.8604 242.7478 -10132.8159 -8730.2737 240.0104 -123.1825 -15.6797 28927.2436 4.0191 4.0314
TCL: Running 100000 steps at 270 kelvin.
TCL: Setting parameter langevinTemp to 270
TCL: Running for 100000 steps
ETITLE: TS BOND ANGLE DIHED IMPRP ELECT VDW BOUNDARY MISC KINETIC TOTAL TEMP POTENTIAL TOTAL3 TEMPAVG PRESSURE GPRESSURE VOLUME PRESSAVG GPRESSAVG
ENERGY: 800000 0.0000 0.0000 0.0000 0.0000 -11805.5953 1672.7795 0.0000 0.0000 1397.2574 -8735.5585 242.6266 -10132.8159 -8733.1349 242.6266 -90.0092 -14.0708 28927.2436 -90.0092 -14.0708
ENERGY: 900000 0.0000 0.0000 0.0000 0.0000 -11311.5884 1515.0767 0.0000 0.0000 1563.1507 -8233.3610 271.4331 -9796.5117 -8232.5895 269.3372 -212.7259 -102.8175 29180.7851 2.7586 2.9148
TCL: Running 1000000 steps at 300 kelvin.
TCL: Setting parameter langevinTemp to 300
TCL: Running for 1000000 steps
ETITLE: TS BOND ANGLE DIHED IMPRP ELECT VDW BOUNDARY MISC KINETIC TOTAL TEMP POTENTIAL TOTAL3 TEMPAVG PRESSURE GPRESSURE VOLUME PRESSAVG GPRESSAVG
ENERGY: 900000 0.0000 0.0000 0.0000 0.0000 -11311.5884 1515.0767 0.0000 0.0000 1562.3876 -8234.1241 271.3006 -9796.5117 -8231.4646 271.3006 -181.3515 -104.2906 29180.7851 -181.3515 -104.2906
ENERGY: 1100000 0.0000 0.0000 0.0000 0.0000 -10684.8958 1434.3463 0.0000 0.0000 1701.7786 -7548.7709 295.5052 -9250.5495 -7547.1983 300.6466 452.8082 539.7817 30220.6404 2.5340 2.6205
ENERGY: 1300000 0.0000 0.0000 0.0000 0.0000 -10617.9994 1268.2109 0.0000 0.0000 1814.4904 -7535.2981 315.0770 -9349.7885 -7532.9314 299.0453 -964.8093 -969.7528 30054.8018 1.9164 1.9242
ENERGY: 1500000 0.0000 0.0000 0.0000 0.0000 -10709.7880 1350.8481 0.0000 0.0000 1670.4762 -7688.4637 290.0697 -9358.9399 -7684.4788 300.9260 -366.7160 -271.9119 29876.7928 2.4199 2.1724
ENERGY: 1700000 0.0000 0.0000 0.0000 0.0000 -10880.4191 1494.6734 0.0000 0.0000 1731.2431 -7654.5027 300.6215 -9385.7457 -7653.1979 300.4455 581.8353 638.4141 30071.4456 3.6584 3.5828
ENERGY: 1900000 0.0000 0.0000 0.0000 0.0000 -10718.4109 1353.8466 0.0000 0.0000 1753.7357 -7610.8286 304.5272 -9364.5643 -7604.7963 300.7513 -493.1929 -488.1015 30268.5255 3.6183 3.3494
TCL: Exiting due to exit command.
