Info: SIMULATION PARAMETERS:
Info: TIMESTEP               2
Info: NUMBER OF STEPS        0
Info: STEPS PER CYCLE        10
Info: PERIODIC CELL BASIS 1  37.399 0 0
Info: PERIODIC CELL BASIS 2  0 35.779 0
Info: PERIODIC CELL BASIS 3  0 0 31.855
Info: PERIODIC CELL CENTER   0 0 0
Info: WRAPPING WATERS AROUND PERIODIC BOUNDARIES ON OUTPUT.
Info: WRAPPING ALL CLUSTERS AROUND PERIODIC BOUNDARIES ON OUTPUT.
Info: FIRST LDB TIMESTEP     50
Info: LAST LDB TIMESTEP     -1
Info: HOM BACKGROUND SCALING 1
Info: PME BACKGROUND SCALING 1
Info: MIN ATOMS PER PATCH    40
Info: EMPTY PATCH LOAD       40 ATOMS
Info: INITIAL TEMPERATURE    300
Info: CENTER OF MASS MOVING INITIALLY? NO
Info: DIELECTRIC             1
Info: EXCLUDE                SCALED ONE-FOUR
Info: 1-4 ELECTROSTATICS SCALED BY 0.833333
Info: MODIFIED 1-4 VDW PARAMETERS WILL BE USED
Info: DCD FILENAME           mobley_4291494_equil.dcd
Info: DCD FREQUENCY          100000
Info: DCD FIRST STEP         100000
Info: DCD FILE WILL CONTAIN UNIT CELL DATA
Info: XST FILENAME           mobley_4291494_equil.xst
Info: XST FREQUENCY          100000
Info: NO VELOCITY DCD OUTPUT
Info: NO FORCE DCD OUTPUT
Info: OUTPUT FILENAME        mobley_4291494_equil
Info: BINARY OUTPUT FILES WILL BE USED
Info: RESTART FILENAME       mobley_4291494_equil.restart
Info: RESTART FREQUENCY      100000
Info: BINARY RESTART FILES WILL BE USED
Info: CUTOFF                 9
Info: PAIRLIST DISTANCE      11
Info: PAIRLIST SHRINK RATE   0.01
Info: PAIRLIST GROW RATE     0.01
Info: PAIRLIST TRIGGER       0.3
Info: PAIRLISTS PER CYCLE    2
Info: PAIRLISTS ENABLED
Info: MARGIN                 8
Info: HYDROGEN GROUP CUTOFF  2.5
Info: PATCH DIMENSION        21.5
Info: ENERGY OUTPUT STEPS    100000
Info: ENERGY EVALUATION STEPS    100000
Info: OUTPUT ENERGY PRECISION 4
Info: CROSSTERM ENERGY INCLUDED IN DIHEDRAL
Info: TIMING OUTPUT STEPS    1000000
Info: PRESSURE OUTPUT STEPS  100000
Info: FIXED ATOMS ACTIVE
Info: LANGEVIN DYNAMICS ACTIVE
Info: LANGEVIN TEMPERATURE   30
Info: LANGEVIN USING BBK INTEGRATOR
Info: LANGEVIN DAMPING COEFFICIENT IS 1 INVERSE PS
Info: LANGEVIN DYNAMICS APPLIED TO HYDROGENS
Info: LANGEVIN PISTON PRESSURE CONTROL ACTIVE
Info:        TARGET PRESSURE IS 1.01325 BAR
Info:     OSCILLATION PERIOD IS 50 FS
Info:             DECAY TIME IS 25 FS
Info:     PISTON TEMPERATURE IS 300 K
Info:       PRESSURE CONTROL IS GROUP-BASED
Info:    INITIAL STRAIN RATE IS 0 0 0
Info:       CELL FLUCTUATION IS ISOTROPIC
Info: PARTICLE MESH EWALD (PME) ACTIVE
Info: PME TOLERANCE               1e-06
Info: PME EWALD COEFFICIENT       0.348832
Info: PME INTERPOLATION ORDER     4
Info: PME GRID DIMENSIONS         40 36 32
Info: PME MAXIMUM GRID SPACING    1
Info: FULL ELECTROSTATIC EVALUATION FREQUENCY      2
Info: USING VERLET I (r-RESPA) MTS SCHEME.
Info: C1 SPLITTING OF LONG RANGE ELECTROSTATICS
Info: PLACING ATOMS IN PATCHES BY HYDROGEN GROUPS
Info: RIGID BONDS TO HYDROGEN : ALL
Info:         ERROR TOLERANCE : 1e-08
Info:          MAX ITERATIONS : 100
Info: RIGID WATER USING SETTLE ALGORITHM
Info: RANDOM NUMBER SEED     1743685455
Info: USE HYDROGEN BONDS?    NO
Info: Using AMBER format force field!
Info: AMBER PARM FILE        mobley_4291494.prmtop
Info: COORDINATE PDB         mobley_4291494.pdb
Info: Exclusions will be read from PARM file!
Info: SCNB (VDW SCALING)     2
Info: USING ARITHMETIC MEAN TO COMBINE L-J SIGMA PARAMETERS
Info: BINARY COORDINATES     mobley_4291494_min.coor
Info: SUMMARY OF PARAMETERS:
Info: 7 BONDS
Info: 8 ANGLES
Info:   8 HARMONIC
Info:   0 COSINE-BASED
Info: 3 DIHEDRAL
Info: 0 IMPROPER
Info: 0 CROSSTERM
Info: 0 VDW
Info: 28 VDW_PAIRS
Info: 0 NBTHOLE_PAIRS
Info: STRUCTURE SUMMARY:
Info: 2924 ATOMS
Info: 2924 BONDS
Info: 16 ANGLES
Info: 25 DIHEDRALS
Info: 0 IMPROPERS
Info: 0 CROSSTERMS
Info: 2957 EXCLUSIONS
Info: 11 FIXED ATOMS
Info: 2917 RIGID BONDS
Info: 4 RIGID BONDS BETWEEN FIXED ATOMS
Info: 5826 DEGREES OF FREEDOM
Info: 978 HYDROGEN GROUPS
Info: 3 ATOMS IN LARGEST HYDROGEN GROUP
Info: 978 MIGRATION GROUPS
Info: 3 ATOMS IN LARGEST MIGRATION GROUP
Info: 7 HYDROGEN GROUPS WITH ALL ATOMS FIXED
Info: TOTAL MASS = 17607.1 amu
Info: TOTAL CHARGE = 9.99942e-05 e
Info: MASS DENSITY = 0.685931 g/cm^3
Info: ATOM DENSITY = 0.068598 atoms/A^3
Info: ADDED 0 IMPLICIT EXCLUSIONS
Info: NONBONDED TABLE R-SQUARED SPACING: 0.0625
Info: NONBONDED TABLE SIZE: 705 POINTS
Info: REMOVING COM VELOCITY 0.0921835 0.0399531 0.0280702
TCL: Running for 100000 steps
ETITLE: TS BOND ANGLE DIHED IMPRP ELECT VDW BOUNDARY MISC KINETIC TOTAL TEMP POTENTIAL TOTAL3 TEMPAVG PRESSURE GPRESSURE VOLUME PRESSAVG GPRESSAVG
ENERGY: 0 0.0000 0.0000 0.0000 0.0000 -13621.9345 2342.9140 0.0000 0.0000 1745.7705 -9533.2499 301.5831 -11279.0204 -9532.9064 301.5831 39.8726 75.5544 42625.1379 39.8726 75.5544
ENERGY: 100000 0.0000 0.0000 0.0000 0.0000 -14135.8816 2384.2385 0.0000 0.0000 173.0430 -11578.6001 29.8933 -11751.6431 -11578.0342 30.9324 -791.1616 -722.8417 28557.5452 5.3750 5.3663
TCL: Running 100000 steps at 60 kelvin.
TCL: Setting parameter langevinTemp to 60
TCL: Running for 100000 steps
ETITLE: TS BOND ANGLE DIHED IMPRP ELECT VDW BOUNDARY MISC KINETIC TOTAL TEMP POTENTIAL TOTAL3 TEMPAVG PRESSURE GPRESSURE VOLUME PRESSAVG GPRESSAVG
ENERGY: 100000 0.0000 0.0000 0.0000 0.0000 -14135.8816 2384.2385 0.0000 0.0000 172.9597 -11578.6834 29.8789 -11751.6431 -11578.3344 29.8789 -773.1879 -722.8066 28557.5452 -773.1879 -722.8066
ENERGY: 200000 0.0000 0.0000 0.0000 0.0000 -14059.9425 2415.9503 0.0000 0.0000 361.7627 -11282.2295 62.4948 -11643.9922 -11281.3315 60.0074 42.4788 103.5110 28314.5881 2.6110 2.5822
TCL: Running 100000 steps at 90 kelvin.
TCL: Setting parameter langevinTemp to 90
TCL: Running for 100000 steps
ETITLE: TS BOND ANGLE DIHED IMPRP ELECT VDW BOUNDARY MISC KINETIC TOTAL TEMP POTENTIAL TOTAL3 TEMPAVG PRESSURE GPRESSURE VOLUME PRESSAVG GPRESSAVG
ENERGY: 200000 0.0000 0.0000 0.0000 0.0000 -14059.9425 2415.9503 0.0000 0.0000 361.5882 -11282.4040 62.4646 -11643.9922 -11281.6765 62.4646 48.2415 103.7292 28314.5881 48.2415 103.7292
ENERGY: 300000 0.0000 0.0000 0.0000 0.0000 -13949.4030 2380.2539 0.0000 0.0000 525.4452 -11043.7040 90.7710 -11569.1492 -11042.4341 90.1683 -250.7049 -193.8877 28769.6561 5.3106 5.3634
TCL: Running 100000 steps at 120 kelvin.
TCL: Setting parameter langevinTemp to 120
TCL: Running for 100000 steps
ETITLE: TS BOND ANGLE DIHED IMPRP ELECT VDW BOUNDARY MISC KINETIC TOTAL TEMP POTENTIAL TOTAL3 TEMPAVG PRESSURE GPRESSURE VOLUME PRESSAVG GPRESSAVG
ENERGY: 300000 0.0000 0.0000 0.0000 0.0000 -13949.4030 2380.2539 0.0000 0.0000 525.1869 -11043.9623 90.7264 -11569.1492 -11042.9612 90.7264 -242.1088 -193.3339 28769.6561 -242.1088 -193.3339
ENERGY: 400000 0.0000 0.0000 0.0000 0.0000 -13737.0553 2326.7858 0.0000 0.0000 702.5799 -10707.6896 121.3712 -11410.2695 -10706.1111 119.8646 -3.3581 109.6610 28753.2941 2.9609 3.0190
TCL: Running 100000 steps at 150 kelvin.
TCL: Setting parameter langevinTemp to 150
TCL: Running for 100000 steps
ETITLE: TS BOND ANGLE DIHED IMPRP ELECT VDW BOUNDARY MISC KINETIC TOTAL TEMP POTENTIAL TOTAL3 TEMPAVG PRESSURE GPRESSURE VOLUME PRESSAVG GPRESSAVG
ENERGY: 400000 0.0000 0.0000 0.0000 0.0000 -13737.0553 2326.7858 0.0000 0.0000 702.2424 -10708.0270 121.3129 -11410.2695 -10706.7125 121.3129 60.3363 109.0917 28753.2941 60.3363 109.0917
ENERGY: 500000 0.0000 0.0000 0.0000 0.0000 -13536.1525 2285.1607 0.0000 0.0000 857.5538 -10393.4380 148.1431 -11250.9918 -10391.6250 149.4885 298.2760 375.5650 28834.2321 3.5007 3.4551
TCL: Running 100000 steps at 180 kelvin.
TCL: Setting parameter langevinTemp to 180
TCL: Running for 100000 steps
ETITLE: TS BOND ANGLE DIHED IMPRP ELECT VDW BOUNDARY MISC KINETIC TOTAL TEMP POTENTIAL TOTAL3 TEMPAVG PRESSURE GPRESSURE VOLUME PRESSAVG GPRESSAVG
ENERGY: 500000 0.0000 0.0000 0.0000 0.0000 -13536.1525 2285.1607 0.0000 0.0000 857.1226 -10393.8692 148.0686 -11250.9918 -10392.2519 148.0686 318.9776 374.9242 28834.2321 318.9776 374.9242
ENERGY: 600000 0.0000 0.0000 0.0000 0.0000 -13034.9027 2095.0842 0.0000 0.0000 1018.9946 -9920.8238 176.0321 -10939.8184 -9920.0400 180.0409 -63.8203 20.3707 28776.5289 6.0428 5.9155
TCL: Running 100000 steps at 210 kelvin.
TCL: Setting parameter langevinTemp to 210
TCL: Running for 100000 steps
ETITLE: TS BOND ANGLE DIHED IMPRP ELECT VDW BOUNDARY MISC KINETIC TOTAL TEMP POTENTIAL TOTAL3 TEMPAVG PRESSURE GPRESSURE VOLUME PRESSAVG GPRESSAVG
ENERGY: 600000 0.0000 0.0000 0.0000 0.0000 -13034.9027 2095.0842 0.0000 0.0000 1018.4929 -9921.3256 175.9454 -10939.8184 -9919.4455 175.9454 -42.6450 18.9746 28776.5289 -42.6450 18.9746
ENERGY: 700000 0.0000 0.0000 0.0000 0.0000 -12397.0959 1892.1556 0.0000 0.0000 1202.7122 -9302.2281 207.7694 -10504.9404 -9298.8811 210.2430 87.5558 244.1960 28213.3046 3.1144 3.0619
TCL: Running 100000 steps at 240 kelvin.
TCL: Setting parameter langevinTemp to 240
TCL: Running for 100000 steps
ETITLE: TS BOND ANGLE DIHED IMPRP ELECT VDW BOUNDARY MISC KINETIC TOTAL TEMP POTENTIAL TOTAL3 TEMPAVG PRESSURE GPRESSURE VOLUME PRESSAVG GPRESSAVG
ENERGY: 700000 0.0000 0.0000 0.0000 0.0000 -12397.0959 1892.1556 0.0000 0.0000 1202.0870 -9302.8534 207.6614 -10504.9404 -9300.7857 207.6614 163.8138 245.6431 28213.3046 163.8138 245.6431
ENERGY: 800000 0.0000 0.0000 0.0000 0.0000 -11740.2009 1734.8188 0.0000 0.0000 1380.0701 -8625.3121 238.4081 -10005.3822 -8622.3254 240.6323 442.2324 539.5553 28985.8752 3.9236 3.7744
TCL: Running 100000 steps at 270 kelvin.
TCL: Setting parameter langevinTemp to 270
TCL: Running for 100000 steps
ETITLE: TS BOND ANGLE DIHED IMPRP ELECT VDW BOUNDARY MISC KINETIC TOTAL TEMP POTENTIAL TOTAL3 TEMPAVG PRESSURE GPRESSURE VOLUME PRESSAVG GPRESSAVG
ENERGY: 800000 0.0000 0.0000 0.0000 0.0000 -11740.2009 1734.8188 0.0000 0.0000 1379.3858 -8625.9963 238.2899 -10005.3822 -8623.7489 238.2899 463.1087 539.9464 28985.8752 463.1087 539.9464
ENERGY: 900000 0.0000 0.0000 0.0000 0.0000 -10987.8536 1374.0316 0.0000 0.0000 1638.5648 -7975.2571 283.0633 -9613.8220 -7971.6419 270.3383 -1367.9781 -1253.9255 29702.3834 4.3780 4.2298
TCL: Running 1000000 steps at 300 kelvin.
TCL: Setting parameter langevinTemp to 300
TCL: Running for 1000000 steps
ETITLE: TS BOND ANGLE DIHED IMPRP ELECT VDW BOUNDARY MISC KINETIC TOTAL TEMP POTENTIAL TOTAL3 TEMPAVG PRESSURE GPRESSURE VOLUME PRESSAVG GPRESSAVG
ENERGY: 900000 0.0000 0.0000 0.0000 0.0000 -10987.8536 1374.0316 0.0000 0.0000 1637.7856 -7976.0364 282.9287 -9613.8220 -7973.0255 282.9287 -1332.9933 -1252.3927 29702.3834 -1332.9933 -1252.3927
ENERGY: 1100000 0.0000 0.0000 0.0000 0.0000 -10667.1290 1396.7138 0.0000 0.0000 1704.7876 -7565.6277 294.5033 -9270.4152 -7563.2587 300.6307 -197.1206 -85.1118 30011.1408 2.7337 2.7385
ENERGY: 1300000 0.0000 0.0000 0.0000 0.0000 -10674.7116 1481.5909 0.0000 0.0000 1703.2215 -7489.8992 294.2328 -9193.1207 -7487.6145 300.6077 567.4486 619.9902 30296.1556 2.9046 2.7393
ENERGY: 1500000 0.0000 0.0000 0.0000 0.0000 -10718.8606 1451.0458 0.0000 0.0000 1681.7030 -7586.1118 290.5154 -9267.8148 -7580.8633 300.3892 21.2381 91.7928 30528.1283 2.3329 2.0903
ENERGY: 1700000 0.0000 0.0000 0.0000 0.0000 -10857.0960 1492.5493 0.0000 0.0000 1743.4893 -7621.0573 301.1891 -9364.5466 -7617.6550 300.2890 53.9157 142.2935 30156.8511 2.8182 2.8253
ENERGY: 1900000 0.0000 0.0000 0.0000 0.0000 -10586.7857 1387.6945 0.0000 0.0000 1734.4709 -7464.6203 299.6311 -9199.0912 -7462.8564 299.4266 -96.0588 43.8757 30246.9742 2.5658 2.4788
TCL: Exiting due to exit command.
