Info: SIMULATION PARAMETERS:
Info: TIMESTEP               2
Info: NUMBER OF STEPS        0
Info: STEPS PER CYCLE        10
Info: PERIODIC CELL BASIS 1  36.592 0 0
Info: PERIODIC CELL BASIS 2  0 35.411 0
Info: PERIODIC CELL BASIS 3  0 0 34.68
Info: PERIODIC CELL CENTER   0 0 0
Info: WRAPPING WATERS AROUND PERIODIC BOUNDARIES ON OUTPUT.
Info: WRAPPING ALL CLUSTERS AROUND PERIODIC BOUNDARIES ON OUTPUT.
Info: FIRST LDB TIMESTEP     50
Info: LAST LDB TIMESTEP     -1
Info: HOM BACKGROUND SCALING 1
Info: PME BACKGROUND SCALING 1
Info: MIN ATOMS PER PATCH    40
Info: EMPTY PATCH LOAD       40 ATOMS
Info: INITIAL TEMPERATURE    300
Info: CENTER OF MASS MOVING INITIALLY? NO
Info: DIELECTRIC             1
Info: EXCLUDE                SCALED ONE-FOUR
Info: 1-4 ELECTROSTATICS SCALED BY 0.833333
Info: MODIFIED 1-4 VDW PARAMETERS WILL BE USED
Info: DCD FILENAME           mobley_8685905_equil.dcd
Info: DCD FREQUENCY          100000
Info: DCD FIRST STEP         100000
Info: DCD FILE WILL CONTAIN UNIT CELL DATA
Info: XST FILENAME           mobley_8685905_equil.xst
Info: XST FREQUENCY          100000
Info: NO VELOCITY DCD OUTPUT
Info: NO FORCE DCD OUTPUT
Info: OUTPUT FILENAME        mobley_8685905_equil
Info: BINARY OUTPUT FILES WILL BE USED
Info: RESTART FILENAME       mobley_8685905_equil.restart
Info: RESTART FREQUENCY      100000
Info: BINARY RESTART FILES WILL BE USED
Info: CUTOFF                 9
Info: PAIRLIST DISTANCE      11
Info: PAIRLIST SHRINK RATE   0.01
Info: PAIRLIST GROW RATE     0.01
Info: PAIRLIST TRIGGER       0.3
Info: PAIRLISTS PER CYCLE    2
Info: PAIRLISTS ENABLED
Info: MARGIN                 8
Info: HYDROGEN GROUP CUTOFF  2.5
Info: PATCH DIMENSION        21.5
Info: ENERGY OUTPUT STEPS    100000
Info: ENERGY EVALUATION STEPS    100000
Info: OUTPUT ENERGY PRECISION 4
Info: CROSSTERM ENERGY INCLUDED IN DIHEDRAL
Info: TIMING OUTPUT STEPS    1000000
Info: PRESSURE OUTPUT STEPS  100000
Info: FIXED ATOMS ACTIVE
Info: LANGEVIN DYNAMICS ACTIVE
Info: LANGEVIN TEMPERATURE   30
Info: LANGEVIN USING BBK INTEGRATOR
Info: LANGEVIN DAMPING COEFFICIENT IS 1 INVERSE PS
Info: LANGEVIN DYNAMICS APPLIED TO HYDROGENS
Info: LANGEVIN PISTON PRESSURE CONTROL ACTIVE
Info:        TARGET PRESSURE IS 1.01325 BAR
Info:     OSCILLATION PERIOD IS 50 FS
Info:             DECAY TIME IS 25 FS
Info:     PISTON TEMPERATURE IS 300 K
Info:       PRESSURE CONTROL IS GROUP-BASED
Info:    INITIAL STRAIN RATE IS 0 0 0
Info:       CELL FLUCTUATION IS ISOTROPIC
Info: PARTICLE MESH EWALD (PME) ACTIVE
Info: PME TOLERANCE               1e-06
Info: PME EWALD COEFFICIENT       0.348832
Info: PME INTERPOLATION ORDER     4
Info: PME GRID DIMENSIONS         40 36 36
Info: PME MAXIMUM GRID SPACING    1
Info: FULL ELECTROSTATIC EVALUATION FREQUENCY      2
Info: USING VERLET I (r-RESPA) MTS SCHEME.
Info: C1 SPLITTING OF LONG RANGE ELECTROSTATICS
Info: PLACING ATOMS IN PATCHES BY HYDROGEN GROUPS
Info: RIGID BONDS TO HYDROGEN : ALL
Info:         ERROR TOLERANCE : 1e-08
Info:          MAX ITERATIONS : 100
Info: RIGID WATER USING SETTLE ALGORITHM
Info: RANDOM NUMBER SEED     1743682315
Info: USE HYDROGEN BONDS?    NO
Info: Using AMBER format force field!
Info: AMBER PARM FILE        mobley_8685905.prmtop
Info: COORDINATE PDB         mobley_8685905.pdb
Info: Exclusions will be read from PARM file!
Info: SCNB (VDW SCALING)     2
Info: USING ARITHMETIC MEAN TO COMBINE L-J SIGMA PARAMETERS
Info: BINARY COORDINATES     mobley_8685905_min.coor
Info: SUMMARY OF PARAMETERS:
Info: 6 BONDS
Info: 7 ANGLES
Info:   7 HARMONIC
Info:   0 COSINE-BASED
Info: 3 DIHEDRAL
Info: 0 IMPROPER
Info: 0 CROSSTERM
Info: 0 VDW
Info: 21 VDW_PAIRS
Info: 0 NBTHOLE_PAIRS
Info: STRUCTURE SUMMARY:
Info: 2984 ATOMS
Info: 2983 BONDS
Info: 12 ANGLES
Info: 12 DIHEDRALS
Info: 0 IMPROPERS
Info: 0 CROSSTERMS
Info: 3004 EXCLUSIONS
Info: 8 FIXED ATOMS
Info: 2977 RIGID BONDS
Info: 1 RIGID BONDS BETWEEN FIXED ATOMS
Info: 5952 DEGREES OF FREEDOM
Info: 999 HYDROGEN GROUPS
Info: 3 ATOMS IN LARGEST HYDROGEN GROUP
Info: 999 MIGRATION GROUPS
Info: 3 ATOMS IN LARGEST MIGRATION GROUP
Info: 7 HYDROGEN GROUPS WITH ALL ATOMS FIXED
Info: TOTAL MASS = 18052.8 amu
Info: TOTAL CHARGE = -4.47035e-08 e
Info: MASS DENSITY = 0.667115 g/cm^3
Info: ATOM DENSITY = 0.0664042 atoms/A^3
Info: ADDED 0 IMPLICIT EXCLUSIONS
Info: NONBONDED TABLE R-SQUARED SPACING: 0.0625
Info: NONBONDED TABLE SIZE: 705 POINTS
Info: REMOVING COM VELOCITY 0.0376626 0.250231 -0.0791009
TCL: Running for 100000 steps
ETITLE: TS BOND ANGLE DIHED IMPRP ELECT VDW BOUNDARY MISC KINETIC TOTAL TEMP POTENTIAL TOTAL3 TEMPAVG PRESSURE GPRESSURE VOLUME PRESSAVG GPRESSAVG
ENERGY: 0 0.0000 0.0000 0.0000 0.0000 -13815.2421 2415.3685 0.0000 0.0000 1783.4474 -9616.4263 301.5697 -11399.8736 -9616.0733 301.5697 454.8714 488.5849 44936.9329 454.8714 488.5849
ENERGY: 100000 0.0000 0.0000 0.0000 0.0000 -14505.0343 2583.6931 0.0000 0.0000 183.7476 -11737.5937 31.0706 -11921.3413 -11736.9428 30.9176 586.3593 637.5558 29951.2094 3.8879 3.9140
TCL: Running 100000 steps at 60 kelvin.
TCL: Setting parameter langevinTemp to 60
TCL: Running for 100000 steps
ETITLE: TS BOND ANGLE DIHED IMPRP ELECT VDW BOUNDARY MISC KINETIC TOTAL TEMP POTENTIAL TOTAL3 TEMPAVG PRESSURE GPRESSURE VOLUME PRESSAVG GPRESSAVG
ENERGY: 100000 0.0000 0.0000 0.0000 0.0000 -14505.0343 2583.6931 0.0000 0.0000 183.6594 -11737.6819 31.0556 -11921.3413 -11737.3059 31.0556 597.9980 637.5863 29951.2094 597.9980 637.5863
ENERGY: 200000 0.0000 0.0000 0.0000 0.0000 -14359.3017 2501.5648 0.0000 0.0000 346.4095 -11511.3275 58.5757 -11857.7370 -11510.0028 59.9171 311.8476 363.9489 29566.4319 2.9846 3.0063
TCL: Running 100000 steps at 90 kelvin.
TCL: Setting parameter langevinTemp to 90
TCL: Running for 100000 steps
ETITLE: TS BOND ANGLE DIHED IMPRP ELECT VDW BOUNDARY MISC KINETIC TOTAL TEMP POTENTIAL TOTAL3 TEMPAVG PRESSURE GPRESSURE VOLUME PRESSAVG GPRESSAVG
ENERGY: 200000 0.0000 0.0000 0.0000 0.0000 -14359.3017 2501.5648 0.0000 0.0000 346.2356 -11511.5013 58.5463 -11857.7370 -11510.8797 58.5463 307.1796 364.5849 29566.4319 307.1796 364.5849
ENERGY: 300000 0.0000 0.0000 0.0000 0.0000 -14043.3078 2317.3731 0.0000 0.0000 538.1032 -11187.8315 90.9899 -11725.9347 -11186.8982 89.9012 -605.7064 -556.0466 29658.5621 3.4941 3.4116
TCL: Running 100000 steps at 120 kelvin.
TCL: Setting parameter langevinTemp to 120
TCL: Running for 100000 steps
ETITLE: TS BOND ANGLE DIHED IMPRP ELECT VDW BOUNDARY MISC KINETIC TOTAL TEMP POTENTIAL TOTAL3 TEMPAVG PRESSURE GPRESSURE VOLUME PRESSAVG GPRESSAVG
ENERGY: 300000 0.0000 0.0000 0.0000 0.0000 -14043.3078 2317.3731 0.0000 0.0000 537.8374 -11188.0973 90.9449 -11725.9347 -11186.8964 90.9449 -621.6626 -556.2615 29658.5621 -621.6626 -556.2615
ENERGY: 400000 0.0000 0.0000 0.0000 0.0000 -13936.3141 2335.4357 0.0000 0.0000 725.9629 -10874.9155 122.7558 -11600.8784 -10872.7989 120.0070 170.8575 154.5490 29109.1152 4.4344 4.3803
TCL: Running 100000 steps at 150 kelvin.
TCL: Setting parameter langevinTemp to 150
TCL: Running for 100000 steps
ETITLE: TS BOND ANGLE DIHED IMPRP ELECT VDW BOUNDARY MISC KINETIC TOTAL TEMP POTENTIAL TOTAL3 TEMPAVG PRESSURE GPRESSURE VOLUME PRESSAVG GPRESSAVG
ENERGY: 400000 0.0000 0.0000 0.0000 0.0000 -13936.3141 2335.4357 0.0000 0.0000 725.6049 -10875.2735 122.6952 -11600.8784 -10873.7143 122.6952 99.3819 154.8794 29109.1152 99.3819 154.8794
ENERGY: 500000 0.0000 0.0000 0.0000 0.0000 -13782.0477 2317.5142 0.0000 0.0000 904.0411 -10560.4924 152.8677 -11464.5335 -10558.3140 150.0785 483.3268 556.7726 28731.3855 4.0074 3.8761
TCL: Running 100000 steps at 180 kelvin.
TCL: Setting parameter langevinTemp to 180
TCL: Running for 100000 steps
ETITLE: TS BOND ANGLE DIHED IMPRP ELECT VDW BOUNDARY MISC KINETIC TOTAL TEMP POTENTIAL TOTAL3 TEMPAVG PRESSURE GPRESSURE VOLUME PRESSAVG GPRESSAVG
ENERGY: 500000 0.0000 0.0000 0.0000 0.0000 -13782.0477 2317.5142 0.0000 0.0000 903.6000 -10560.9336 152.7931 -11464.5335 -10559.3914 152.7931 495.1025 556.7976 28731.3855 495.1025 556.7976
ENERGY: 600000 0.0000 0.0000 0.0000 0.0000 -13351.6910 2141.3553 0.0000 0.0000 1071.6436 -10138.6921 181.2082 -11210.3357 -10136.3713 179.9691 -151.8665 -75.2630 29222.0925 3.3068 3.1622
TCL: Running 100000 steps at 210 kelvin.
TCL: Setting parameter langevinTemp to 210
TCL: Running for 100000 steps
ETITLE: TS BOND ANGLE DIHED IMPRP ELECT VDW BOUNDARY MISC KINETIC TOTAL TEMP POTENTIAL TOTAL3 TEMPAVG PRESSURE GPRESSURE VOLUME PRESSAVG GPRESSAVG
ENERGY: 600000 0.0000 0.0000 0.0000 0.0000 -13351.6910 2141.3553 0.0000 0.0000 1071.1178 -10139.2179 181.1193 -11210.3357 -10137.9592 181.1193 -135.1846 -73.4038 29222.0925 -135.1846 -73.4038
ENERGY: 700000 0.0000 0.0000 0.0000 0.0000 -12622.4746 1922.5280 0.0000 0.0000 1234.1355 -9465.8111 208.6846 -10699.9466 -9463.3566 209.8422 148.2465 205.0882 28937.6945 3.6852 3.6951
TCL: Running 100000 steps at 240 kelvin.
TCL: Setting parameter langevinTemp to 240
TCL: Running for 100000 steps
ETITLE: TS BOND ANGLE DIHED IMPRP ELECT VDW BOUNDARY MISC KINETIC TOTAL TEMP POTENTIAL TOTAL3 TEMPAVG PRESSURE GPRESSURE VOLUME PRESSAVG GPRESSAVG
ENERGY: 700000 0.0000 0.0000 0.0000 0.0000 -12622.4746 1922.5280 0.0000 0.0000 1233.4858 -9466.4608 208.5747 -10699.9466 -9464.4005 208.5747 122.4528 204.0102 28937.6945 122.4528 204.0102
ENERGY: 800000 0.0000 0.0000 0.0000 0.0000 -12152.7208 1813.4705 0.0000 0.0000 1423.4895 -8915.7609 240.7031 -10339.2503 -8912.7891 240.1035 625.9386 699.6936 28978.8368 1.7446 1.7522
TCL: Running 100000 steps at 270 kelvin.
TCL: Setting parameter langevinTemp to 270
TCL: Running for 100000 steps
ETITLE: TS BOND ANGLE DIHED IMPRP ELECT VDW BOUNDARY MISC KINETIC TOTAL TEMP POTENTIAL TOTAL3 TEMPAVG PRESSURE GPRESSURE VOLUME PRESSAVG GPRESSAVG
ENERGY: 800000 0.0000 0.0000 0.0000 0.0000 -12152.7208 1813.4705 0.0000 0.0000 1422.7828 -8916.4675 240.5836 -10339.2503 -8914.5898 240.5836 611.5677 701.5416 28978.8368 611.5677 701.5416
ENERGY: 900000 0.0000 0.0000 0.0000 0.0000 -11302.3021 1563.2597 0.0000 0.0000 1641.7403 -8097.3021 277.6080 -9739.0423 -8093.1994 269.8393 -100.6452 -60.5709 30431.9720 3.3278 3.3005
TCL: Running 1000000 steps at 300 kelvin.
TCL: Setting parameter langevinTemp to 300
TCL: Running for 1000000 steps
ETITLE: TS BOND ANGLE DIHED IMPRP ELECT VDW BOUNDARY MISC KINETIC TOTAL TEMP POTENTIAL TOTAL3 TEMPAVG PRESSURE GPRESSURE VOLUME PRESSAVG GPRESSAVG
ENERGY: 900000 0.0000 0.0000 0.0000 0.0000 -11302.3021 1563.2597 0.0000 0.0000 1640.9091 -8098.1332 277.4674 -9739.0423 -8095.8334 277.4674 -150.2821 -58.9634 30431.9720 -150.2821 -58.9634
ENERGY: 1100000 0.0000 0.0000 0.0000 0.0000 -10743.0590 1385.9234 0.0000 0.0000 1758.6312 -7598.5045 297.3735 -9357.1357 -7593.9519 300.6707 -387.8225 -356.6645 31106.9948 4.3532 4.3595
ENERGY: 1300000 0.0000 0.0000 0.0000 0.0000 -10973.4650 1492.3588 0.0000 0.0000 1788.7475 -7692.3588 302.4660 -9481.1063 -7685.7228 300.3253 152.3422 239.7483 30658.3671 2.7792 2.7555
ENERGY: 1500000 0.0000 0.0000 0.0000 0.0000 -10919.6933 1496.7404 0.0000 0.0000 1819.9697 -7602.9832 307.7454 -9422.9529 -7600.1930 300.1806 405.4531 539.7333 30595.9557 3.7777 3.7847
ENERGY: 1700000 0.0000 0.0000 0.0000 0.0000 -10911.9585 1378.2998 0.0000 0.0000 1793.3164 -7740.3424 303.2385 -9533.6587 -7736.2629 300.2160 -873.6136 -833.7552 30546.9649 3.2342 3.1683
ENERGY: 1900000 0.0000 0.0000 0.0000 0.0000 -10915.8011 1462.5195 0.0000 0.0000 1783.1505 -7670.1312 301.5195 -9453.2817 -7667.4222 300.1476 -86.5073 -36.7095 30865.9315 2.3909 2.5058
TCL: Exiting due to exit command.
