Info: SIMULATION PARAMETERS:
Info: TIMESTEP               2
Info: NUMBER OF STEPS        0
Info: STEPS PER CYCLE        10
Info: PERIODIC CELL BASIS 1  37.38 0 0
Info: PERIODIC CELL BASIS 2  0 34.26 0
Info: PERIODIC CELL BASIS 3  0 0 34.229
Info: PERIODIC CELL CENTER   0 0 0
Info: WRAPPING WATERS AROUND PERIODIC BOUNDARIES ON OUTPUT.
Info: WRAPPING ALL CLUSTERS AROUND PERIODIC BOUNDARIES ON OUTPUT.
Info: FIRST LDB TIMESTEP     50
Info: LAST LDB TIMESTEP     -1
Info: HOM BACKGROUND SCALING 1
Info: PME BACKGROUND SCALING 1
Info: MIN ATOMS PER PATCH    40
Info: EMPTY PATCH LOAD       40 ATOMS
Info: INITIAL TEMPERATURE    300
Info: CENTER OF MASS MOVING INITIALLY? NO
Info: DIELECTRIC             1
Info: EXCLUDE                SCALED ONE-FOUR
Info: 1-4 ELECTROSTATICS SCALED BY 0.833333
Info: MODIFIED 1-4 VDW PARAMETERS WILL BE USED
Info: DCD FILENAME           mobley_664966_equil.dcd
Info: DCD FREQUENCY          100000
Info: DCD FIRST STEP         100000
Info: DCD FILE WILL CONTAIN UNIT CELL DATA
Info: XST FILENAME           mobley_664966_equil.xst
Info: XST FREQUENCY          100000
Info: NO VELOCITY DCD OUTPUT
Info: NO FORCE DCD OUTPUT
Info: OUTPUT FILENAME        mobley_664966_equil
Info: BINARY OUTPUT FILES WILL BE USED
Info: RESTART FILENAME       mobley_664966_equil.restart
Info: RESTART FREQUENCY      100000
Info: BINARY RESTART FILES WILL BE USED
Info: CUTOFF                 9
Info: PAIRLIST DISTANCE      11
Info: PAIRLIST SHRINK RATE   0.01
Info: PAIRLIST GROW RATE     0.01
Info: PAIRLIST TRIGGER       0.3
Info: PAIRLISTS PER CYCLE    2
Info: PAIRLISTS ENABLED
Info: MARGIN                 8
Info: HYDROGEN GROUP CUTOFF  2.5
Info: PATCH DIMENSION        21.5
Info: ENERGY OUTPUT STEPS    100000
Info: ENERGY EVALUATION STEPS    100000
Info: OUTPUT ENERGY PRECISION 4
Info: CROSSTERM ENERGY INCLUDED IN DIHEDRAL
Info: TIMING OUTPUT STEPS    1000000
Info: PRESSURE OUTPUT STEPS  100000
Info: FIXED ATOMS ACTIVE
Info: LANGEVIN DYNAMICS ACTIVE
Info: LANGEVIN TEMPERATURE   30
Info: LANGEVIN USING BBK INTEGRATOR
Info: LANGEVIN DAMPING COEFFICIENT IS 1 INVERSE PS
Info: LANGEVIN DYNAMICS APPLIED TO HYDROGENS
Info: LANGEVIN PISTON PRESSURE CONTROL ACTIVE
Info:        TARGET PRESSURE IS 1.01325 BAR
Info:     OSCILLATION PERIOD IS 50 FS
Info:             DECAY TIME IS 25 FS
Info:     PISTON TEMPERATURE IS 300 K
Info:       PRESSURE CONTROL IS GROUP-BASED
Info:    INITIAL STRAIN RATE IS 0 0 0
Info:       CELL FLUCTUATION IS ISOTROPIC
Info: PARTICLE MESH EWALD (PME) ACTIVE
Info: PME TOLERANCE               1e-06
Info: PME EWALD COEFFICIENT       0.348832
Info: PME INTERPOLATION ORDER     4
Info: PME GRID DIMENSIONS         40 36 36
Info: PME MAXIMUM GRID SPACING    1
Info: FULL ELECTROSTATIC EVALUATION FREQUENCY      2
Info: USING VERLET I (r-RESPA) MTS SCHEME.
Info: C1 SPLITTING OF LONG RANGE ELECTROSTATICS
Info: PLACING ATOMS IN PATCHES BY HYDROGEN GROUPS
Info: RIGID BONDS TO HYDROGEN : ALL
Info:         ERROR TOLERANCE : 1e-08
Info:          MAX ITERATIONS : 100
Info: RIGID WATER USING SETTLE ALGORITHM
Info: RANDOM NUMBER SEED     1743678572
Info: USE HYDROGEN BONDS?    NO
Info: Using AMBER format force field!
Info: AMBER PARM FILE        mobley_664966.prmtop
Info: COORDINATE PDB         mobley_664966.pdb
Info: Exclusions will be read from PARM file!
Info: SCNB (VDW SCALING)     2
Info: USING ARITHMETIC MEAN TO COMBINE L-J SIGMA PARAMETERS
Info: BINARY COORDINATES     mobley_664966_min.coor
Info: SUMMARY OF PARAMETERS:
Info: 4 BONDS
Info: 3 ANGLES
Info:   3 HARMONIC
Info:   0 COSINE-BASED
Info: 0 DIHEDRAL
Info: 0 IMPROPER
Info: 0 CROSSTERM
Info: 0 VDW
Info: 15 VDW_PAIRS
Info: 0 NBTHOLE_PAIRS
Info: STRUCTURE SUMMARY:
Info: 2960 ATOMS
Info: 2959 BONDS
Info: 6 ANGLES
Info: 0 DIHEDRALS
Info: 0 IMPROPERS
Info: 0 CROSSTERMS
Info: 2965 EXCLUSIONS
Info: 5 FIXED ATOMS
Info: 2957 RIGID BONDS
Info: 2 RIGID BONDS BETWEEN FIXED ATOMS
Info: 5910 DEGREES OF FREEDOM
Info: 988 HYDROGEN GROUPS
Info: 3 ATOMS IN LARGEST HYDROGEN GROUP
Info: 988 MIGRATION GROUPS
Info: 3 ATOMS IN LARGEST MIGRATION GROUP
Info: 3 HYDROGEN GROUPS WITH ALL ATOMS FIXED
Info: TOTAL MASS = 18013.6 amu
Info: TOTAL CHARGE = -0.000200003 e
Info: MASS DENSITY = 0.682399 g/cm^3
Info: ATOM DENSITY = 0.067526 atoms/A^3
Info: ADDED 0 IMPLICIT EXCLUSIONS
Info: NONBONDED TABLE R-SQUARED SPACING: 0.0625
Info: NONBONDED TABLE SIZE: 705 POINTS
Info: REMOVING COM VELOCITY -0.00163073 0.0177432 0.00210373
TCL: Running for 100000 steps
ETITLE: TS BOND ANGLE DIHED IMPRP ELECT VDW BOUNDARY MISC KINETIC TOTAL TEMP POTENTIAL TOTAL3 TEMPAVG PRESSURE GPRESSURE VOLUME PRESSAVG GPRESSAVG
ENERGY: 0 0.0000 0.0000 0.0000 0.0000 -13625.3259 2330.5340 0.0000 0.0000 1748.4393 -9546.3526 297.7512 -11294.7919 -9546.0373 297.7512 28.3042 62.8038 43834.9855 28.3042 62.8038
ENERGY: 100000 0.0000 0.0000 0.0000 0.0000 -14109.3272 2386.7838 0.0000 0.0000 177.5748 -11544.9686 30.2402 -11722.5433 -11544.3542 30.8281 -668.7337 -622.7037 30385.7244 4.3226 4.3763
TCL: Running 100000 steps at 60 kelvin.
TCL: Setting parameter langevinTemp to 60
TCL: Running for 100000 steps
ETITLE: TS BOND ANGLE DIHED IMPRP ELECT VDW BOUNDARY MISC KINETIC TOTAL TEMP POTENTIAL TOTAL3 TEMPAVG PRESSURE GPRESSURE VOLUME PRESSAVG GPRESSAVG
ENERGY: 100000 0.0000 0.0000 0.0000 0.0000 -14109.3272 2386.7838 0.0000 0.0000 177.4900 -11545.0534 30.2257 -11722.5433 -11544.6986 30.2257 -670.4879 -622.4599 30385.7244 -670.4879 -622.4599
ENERGY: 200000 0.0000 0.0000 0.0000 0.0000 -14189.3849 2483.2641 0.0000 0.0000 353.0723 -11353.0485 60.1266 -11706.1208 -11351.7446 60.0769 441.0282 464.0440 29544.4115 2.1030 2.0306
TCL: Running 100000 steps at 90 kelvin.
TCL: Setting parameter langevinTemp to 90
TCL: Running for 100000 steps
ETITLE: TS BOND ANGLE DIHED IMPRP ELECT VDW BOUNDARY MISC KINETIC TOTAL TEMP POTENTIAL TOTAL3 TEMPAVG PRESSURE GPRESSURE VOLUME PRESSAVG GPRESSAVG
ENERGY: 200000 0.0000 0.0000 0.0000 0.0000 -14189.3849 2483.2641 0.0000 0.0000 352.8927 -11353.2282 60.0960 -11706.1208 -11352.4809 60.0960 421.3951 464.0790 29544.4115 421.3951 464.0790
ENERGY: 300000 0.0000 0.0000 0.0000 0.0000 -13929.0246 2307.4645 0.0000 0.0000 520.1607 -11101.3993 88.5810 -11621.5601 -11100.5902 89.8704 -698.0570 -687.6557 29679.8626 3.6191 3.6718
TCL: Running 100000 steps at 120 kelvin.
TCL: Setting parameter langevinTemp to 120
TCL: Running for 100000 steps
ETITLE: TS BOND ANGLE DIHED IMPRP ELECT VDW BOUNDARY MISC KINETIC TOTAL TEMP POTENTIAL TOTAL3 TEMPAVG PRESSURE GPRESSURE VOLUME PRESSAVG GPRESSAVG
ENERGY: 300000 0.0000 0.0000 0.0000 0.0000 -13929.0246 2307.4645 0.0000 0.0000 519.9001 -11101.6600 88.5366 -11621.5601 -11100.5532 88.5366 -741.5271 -688.1085 29679.8626 -741.5271 -688.1085
ENERGY: 400000 0.0000 0.0000 0.0000 0.0000 -13799.8735 2284.9805 0.0000 0.0000 690.0533 -10824.8396 117.5129 -11514.8930 -10823.4964 119.8316 -383.1584 -316.8842 29016.7926 2.0523 2.0256
TCL: Running 100000 steps at 150 kelvin.
TCL: Setting parameter langevinTemp to 150
TCL: Running for 100000 steps
ETITLE: TS BOND ANGLE DIHED IMPRP ELECT VDW BOUNDARY MISC KINETIC TOTAL TEMP POTENTIAL TOTAL3 TEMPAVG PRESSURE GPRESSURE VOLUME PRESSAVG GPRESSAVG
ENERGY: 400000 0.0000 0.0000 0.0000 0.0000 -13799.8735 2284.9805 0.0000 0.0000 689.6895 -10825.2035 117.4509 -11514.8930 -10824.0332 117.4509 -378.4642 -316.4669 29016.7926 -378.4642 -316.4669
ENERGY: 500000 0.0000 0.0000 0.0000 0.0000 -13514.3799 2166.4471 0.0000 0.0000 893.7852 -10454.1476 152.2075 -11347.9328 -10452.0560 150.0412 -757.8823 -732.2038 28882.4029 3.6147 3.6353
TCL: Running 100000 steps at 180 kelvin.
TCL: Setting parameter langevinTemp to 180
TCL: Running for 100000 steps
ETITLE: TS BOND ANGLE DIHED IMPRP ELECT VDW BOUNDARY MISC KINETIC TOTAL TEMP POTENTIAL TOTAL3 TEMPAVG PRESSURE GPRESSURE VOLUME PRESSAVG GPRESSAVG
ENERGY: 500000 0.0000 0.0000 0.0000 0.0000 -13514.3799 2166.4471 0.0000 0.0000 893.3548 -10454.5780 152.1342 -11347.9328 -10452.7702 152.1342 -785.0700 -732.2246 28882.4029 -785.0700 -732.2246
ENERGY: 600000 0.0000 0.0000 0.0000 0.0000 -13115.3125 2057.3825 0.0000 0.0000 1055.1980 -10002.7320 179.6954 -11057.9301 -10000.6242 180.1142 -465.2281 -390.1600 28851.4945 3.5719 3.5100
TCL: Running 100000 steps at 210 kelvin.
TCL: Setting parameter langevinTemp to 210
TCL: Running for 100000 steps
ETITLE: TS BOND ANGLE DIHED IMPRP ELECT VDW BOUNDARY MISC KINETIC TOTAL TEMP POTENTIAL TOTAL3 TEMPAVG PRESSURE GPRESSURE VOLUME PRESSAVG GPRESSAVG
ENERGY: 600000 0.0000 0.0000 0.0000 0.0000 -13115.3125 2057.3825 0.0000 0.0000 1054.6732 -10003.2568 179.6060 -11057.9301 -10001.3996 179.6060 -450.8528 -391.3114 28851.4945 -450.8528 -391.3114
ENERGY: 700000 0.0000 0.0000 0.0000 0.0000 -12457.8978 1894.3826 0.0000 0.0000 1228.5718 -9334.9434 209.2201 -10563.5152 -9332.6201 209.7898 76.6965 157.6280 28840.1953 3.3257 3.1846
TCL: Running 100000 steps at 240 kelvin.
TCL: Setting parameter langevinTemp to 240
TCL: Running for 100000 steps
ETITLE: TS BOND ANGLE DIHED IMPRP ELECT VDW BOUNDARY MISC KINETIC TOTAL TEMP POTENTIAL TOTAL3 TEMPAVG PRESSURE GPRESSURE VOLUME PRESSAVG GPRESSAVG
ENERGY: 700000 0.0000 0.0000 0.0000 0.0000 -12457.8978 1894.3826 0.0000 0.0000 1227.9332 -9335.5820 209.1114 -10563.5152 -9333.3283 209.1114 99.8771 157.5499 28840.1953 99.8771 157.5499
ENERGY: 800000 0.0000 0.0000 0.0000 0.0000 -11871.1843 1759.3067 0.0000 0.0000 1403.7301 -8708.1475 239.0488 -10111.8775 -8705.2664 239.8905 493.2609 602.8492 28988.4369 3.9899 3.8483
TCL: Running 100000 steps at 270 kelvin.
TCL: Setting parameter langevinTemp to 270
TCL: Running for 100000 steps
ETITLE: TS BOND ANGLE DIHED IMPRP ELECT VDW BOUNDARY MISC KINETIC TOTAL TEMP POTENTIAL TOTAL3 TEMPAVG PRESSURE GPRESSURE VOLUME PRESSAVG GPRESSAVG
ENERGY: 800000 0.0000 0.0000 0.0000 0.0000 -11871.1843 1759.3067 0.0000 0.0000 1403.0560 -8708.8215 238.9340 -10111.8775 -8706.9020 238.9340 512.4437 604.8371 28988.4369 512.4437 604.8371
ENERGY: 900000 0.0000 0.0000 0.0000 0.0000 -11318.3660 1609.8402 0.0000 0.0000 1594.2530 -8114.2727 271.4940 -9708.5257 -8109.3161 269.9387 448.4680 573.7462 29508.1563 3.2194 3.3421
TCL: Running 1000000 steps at 300 kelvin.
TCL: Setting parameter langevinTemp to 300
TCL: Running for 1000000 steps
ETITLE: TS BOND ANGLE DIHED IMPRP ELECT VDW BOUNDARY MISC KINETIC TOTAL TEMP POTENTIAL TOTAL3 TEMPAVG PRESSURE GPRESSURE VOLUME PRESSAVG GPRESSAVG
ENERGY: 900000 0.0000 0.0000 0.0000 0.0000 -11318.3660 1609.8402 0.0000 0.0000 1593.4788 -8115.0469 271.3621 -9708.5257 -8112.6395 271.3621 490.1068 574.4560 29508.1563 490.1068 574.4560
ENERGY: 1100000 0.0000 0.0000 0.0000 0.0000 -10804.4788 1517.3675 0.0000 0.0000 1753.6320 -7533.4793 298.6355 -9287.1113 -7532.1858 299.9082 670.0507 757.8347 30466.8287 3.6588 3.7191
ENERGY: 1300000 0.0000 0.0000 0.0000 0.0000 -10804.9020 1464.6470 0.0000 0.0000 1731.9079 -7608.3470 294.9359 -9340.2550 -7605.0295 300.1432 153.8663 207.2500 30492.8604 1.9839 2.1207
ENERGY: 1500000 0.0000 0.0000 0.0000 0.0000 -10730.7661 1415.1538 0.0000 0.0000 1753.0009 -7562.6114 298.5280 -9315.6123 -7560.0080 300.1190 170.1957 255.9084 29917.8459 3.8394 3.7600
ENERGY: 1700000 0.0000 0.0000 0.0000 0.0000 -10735.3382 1411.6954 0.0000 0.0000 1782.7411 -7540.9018 303.5926 -9323.6429 -7535.9290 300.9551 -572.8677 -446.8614 30935.7104 3.9206 4.0214
ENERGY: 1900000 0.0000 0.0000 0.0000 0.0000 -10736.6126 1411.4333 0.0000 0.0000 1761.8858 -7563.2935 300.0410 -9325.1793 -7561.2623 300.4636 -74.1160 10.5029 30265.0907 2.8266 2.8304
TCL: Exiting due to exit command.
