Info: SIMULATION PARAMETERS:
Info: TIMESTEP               2
Info: NUMBER OF STEPS        0
Info: STEPS PER CYCLE        10
Info: PERIODIC CELL BASIS 1  37.968 0 0
Info: PERIODIC CELL BASIS 2  0 34.696 0
Info: PERIODIC CELL BASIS 3  0 0 33.152
Info: PERIODIC CELL CENTER   0 0 0
Info: WRAPPING WATERS AROUND PERIODIC BOUNDARIES ON OUTPUT.
Info: WRAPPING ALL CLUSTERS AROUND PERIODIC BOUNDARIES ON OUTPUT.
Info: FIRST LDB TIMESTEP     50
Info: LAST LDB TIMESTEP     -1
Info: HOM BACKGROUND SCALING 1
Info: PME BACKGROUND SCALING 1
Info: MIN ATOMS PER PATCH    40
Info: EMPTY PATCH LOAD       40 ATOMS
Info: INITIAL TEMPERATURE    300
Info: CENTER OF MASS MOVING INITIALLY? NO
Info: DIELECTRIC             1
Info: EXCLUDE                SCALED ONE-FOUR
Info: 1-4 ELECTROSTATICS SCALED BY 0.833333
Info: MODIFIED 1-4 VDW PARAMETERS WILL BE USED
Info: DCD FILENAME           mobley_2923700_equil.dcd
Info: DCD FREQUENCY          100000
Info: DCD FIRST STEP         100000
Info: DCD FILE WILL CONTAIN UNIT CELL DATA
Info: XST FILENAME           mobley_2923700_equil.xst
Info: XST FREQUENCY          100000
Info: NO VELOCITY DCD OUTPUT
Info: NO FORCE DCD OUTPUT
Info: OUTPUT FILENAME        mobley_2923700_equil
Info: BINARY OUTPUT FILES WILL BE USED
Info: RESTART FILENAME       mobley_2923700_equil.restart
Info: RESTART FREQUENCY      100000
Info: BINARY RESTART FILES WILL BE USED
Info: CUTOFF                 9
Info: PAIRLIST DISTANCE      11
Info: PAIRLIST SHRINK RATE   0.01
Info: PAIRLIST GROW RATE     0.01
Info: PAIRLIST TRIGGER       0.3
Info: PAIRLISTS PER CYCLE    2
Info: PAIRLISTS ENABLED
Info: MARGIN                 8
Info: HYDROGEN GROUP CUTOFF  2.5
Info: PATCH DIMENSION        21.5
Info: ENERGY OUTPUT STEPS    100000
Info: ENERGY EVALUATION STEPS    100000
Info: OUTPUT ENERGY PRECISION 4
Info: CROSSTERM ENERGY INCLUDED IN DIHEDRAL
Info: TIMING OUTPUT STEPS    1000000
Info: PRESSURE OUTPUT STEPS  100000
Info: FIXED ATOMS ACTIVE
Info: LANGEVIN DYNAMICS ACTIVE
Info: LANGEVIN TEMPERATURE   30
Info: LANGEVIN USING BBK INTEGRATOR
Info: LANGEVIN DAMPING COEFFICIENT IS 1 INVERSE PS
Info: LANGEVIN DYNAMICS APPLIED TO HYDROGENS
Info: LANGEVIN PISTON PRESSURE CONTROL ACTIVE
Info:        TARGET PRESSURE IS 1.01325 BAR
Info:     OSCILLATION PERIOD IS 50 FS
Info:             DECAY TIME IS 25 FS
Info:     PISTON TEMPERATURE IS 300 K
Info:       PRESSURE CONTROL IS GROUP-BASED
Info:    INITIAL STRAIN RATE IS 0 0 0
Info:       CELL FLUCTUATION IS ISOTROPIC
Info: PARTICLE MESH EWALD (PME) ACTIVE
Info: PME TOLERANCE               1e-06
Info: PME EWALD COEFFICIENT       0.348832
Info: PME INTERPOLATION ORDER     4
Info: PME GRID DIMENSIONS         40 36 36
Info: PME MAXIMUM GRID SPACING    1
Info: FULL ELECTROSTATIC EVALUATION FREQUENCY      2
Info: USING VERLET I (r-RESPA) MTS SCHEME.
Info: C1 SPLITTING OF LONG RANGE ELECTROSTATICS
Info: PLACING ATOMS IN PATCHES BY HYDROGEN GROUPS
Info: RIGID BONDS TO HYDROGEN : ALL
Info:         ERROR TOLERANCE : 1e-08
Info:          MAX ITERATIONS : 100
Info: RIGID WATER USING SETTLE ALGORITHM
Info: RANDOM NUMBER SEED     1744094704
Info: USE HYDROGEN BONDS?    NO
Info: Using AMBER format force field!
Info: AMBER PARM FILE        mobley_2923700.prmtop
Info: COORDINATE PDB         mobley_2923700.pdb
Info: Exclusions will be read from PARM file!
Info: SCNB (VDW SCALING)     2
Info: USING ARITHMETIC MEAN TO COMBINE L-J SIGMA PARAMETERS
Info: BINARY COORDINATES     mobley_2923700_min.coor
Info: SUMMARY OF PARAMETERS:
Info: 9 BONDS
Info: 9 ANGLES
Info:   9 HARMONIC
Info:   0 COSINE-BASED
Info: 6 DIHEDRAL
Info: 0 IMPROPER
Info: 0 CROSSTERM
Info: 0 VDW
Info: 28 VDW_PAIRS
Info: 0 NBTHOLE_PAIRS
Info: STRUCTURE SUMMARY:
Info: 2932 ATOMS
Info: 2932 BONDS
Info: 31 ANGLES
Info: 47 DIHEDRALS
Info: 0 IMPROPERS
Info: 0 CROSSTERMS
Info: 3001 EXCLUSIONS
Info: 19 FIXED ATOMS
Info: 2923 RIGID BONDS
Info: 10 RIGID BONDS BETWEEN FIXED ATOMS
Info: 5826 DEGREES OF FREEDOM
Info: 980 HYDROGEN GROUPS
Info: 4 ATOMS IN LARGEST HYDROGEN GROUP
Info: 980 MIGRATION GROUPS
Info: 4 ATOMS IN LARGEST MIGRATION GROUP
Info: 9 HYDROGEN GROUPS WITH ALL ATOMS FIXED
Info: TOTAL MASS = 17615.7 amu
Info: TOTAL CHARGE = -9.99607e-05 e
Info: MASS DENSITY = 0.669811 g/cm^3
Info: ATOM DENSITY = 0.0671363 atoms/A^3
Info: ADDED 0 IMPLICIT EXCLUSIONS
Info: NONBONDED TABLE R-SQUARED SPACING: 0.0625
Info: NONBONDED TABLE SIZE: 705 POINTS
Info: REMOVING COM VELOCITY -0.136564 0.0210832 -0.0512066
TCL: Running for 100000 steps
ETITLE: TS BOND ANGLE DIHED IMPRP ELECT VDW BOUNDARY MISC KINETIC TOTAL TEMP POTENTIAL TOTAL3 TEMPAVG PRESSURE GPRESSURE VOLUME PRESSAVG GPRESSAVG
ENERGY: 0 0.0000 0.0000 0.0000 0.0000 -13591.7537 2407.1135 0.0000 0.0000 1773.0794 -9411.5608 306.3008 -11184.6402 -9411.1669 306.3008 536.8869 570.4419 43672.3804 536.8869 570.4419
ENERGY: 100000 0.0000 0.0000 0.0000 0.0000 -14113.2535 2410.1252 0.0000 0.0000 172.7698 -11530.3584 29.8461 -11703.1283 -11529.7560 30.8966 -358.3740 -312.3795 28527.6166 4.4269 4.3870
TCL: Running 100000 steps at 60 kelvin.
TCL: Setting parameter langevinTemp to 60
TCL: Running for 100000 steps
ETITLE: TS BOND ANGLE DIHED IMPRP ELECT VDW BOUNDARY MISC KINETIC TOTAL TEMP POTENTIAL TOTAL3 TEMPAVG PRESSURE GPRESSURE VOLUME PRESSAVG GPRESSAVG
ENERGY: 100000 0.0000 0.0000 0.0000 0.0000 -14113.2535 2410.1252 0.0000 0.0000 172.6859 -11530.4423 29.8316 -11703.1283 -11530.1236 29.8316 -366.6572 -312.0824 28527.6166 -366.6572 -312.0824
ENERGY: 200000 0.0000 0.0000 0.0000 0.0000 -13948.5707 2339.0089 0.0000 0.0000 343.1626 -11266.3992 59.2816 -11609.5618 -11265.2119 59.9055 -646.1352 -587.8019 28759.0982 4.1391 4.1477
TCL: Running 100000 steps at 90 kelvin.
TCL: Setting parameter langevinTemp to 90
TCL: Running for 100000 steps
ETITLE: TS BOND ANGLE DIHED IMPRP ELECT VDW BOUNDARY MISC KINETIC TOTAL TEMP POTENTIAL TOTAL3 TEMPAVG PRESSURE GPRESSURE VOLUME PRESSAVG GPRESSAVG
ENERGY: 200000 0.0000 0.0000 0.0000 0.0000 -13948.5707 2339.0089 0.0000 0.0000 342.9936 -11266.5682 59.2524 -11609.5618 -11265.8046 59.2524 -660.9167 -587.8905 28759.0982 -660.9167 -587.8905
ENERGY: 300000 0.0000 0.0000 0.0000 0.0000 -13945.7860 2436.5013 0.0000 0.0000 517.3545 -10991.9302 89.3734 -11509.2847 -10990.8744 89.8773 551.4791 599.1293 28738.1748 3.9311 3.9522
TCL: Running 100000 steps at 120 kelvin.
TCL: Setting parameter langevinTemp to 120
TCL: Running for 100000 steps
ETITLE: TS BOND ANGLE DIHED IMPRP ELECT VDW BOUNDARY MISC KINETIC TOTAL TEMP POTENTIAL TOTAL3 TEMPAVG PRESSURE GPRESSURE VOLUME PRESSAVG GPRESSAVG
ENERGY: 300000 0.0000 0.0000 0.0000 0.0000 -13945.7860 2436.5013 0.0000 0.0000 517.0953 -10992.1893 89.3286 -11509.2847 -10991.0738 89.3286 534.4699 598.7121 28738.1748 534.4699 598.7121
ENERGY: 400000 0.0000 0.0000 0.0000 0.0000 -13668.4559 2288.1891 0.0000 0.0000 681.0583 -10699.2085 117.6533 -11380.2668 -10697.0088 120.0872 -145.1380 -123.7532 28699.6508 3.1053 3.0578
TCL: Running 100000 steps at 150 kelvin.
TCL: Setting parameter langevinTemp to 150
TCL: Running for 100000 steps
ETITLE: TS BOND ANGLE DIHED IMPRP ELECT VDW BOUNDARY MISC KINETIC TOTAL TEMP POTENTIAL TOTAL3 TEMPAVG PRESSURE GPRESSURE VOLUME PRESSAVG GPRESSAVG
ENERGY: 400000 0.0000 0.0000 0.0000 0.0000 -13668.4559 2288.1891 0.0000 0.0000 680.7091 -10699.5577 117.5930 -11380.2668 -10698.1643 117.5930 -176.2067 -123.6884 28699.6508 -176.2067 -123.6884
ENERGY: 500000 0.0000 0.0000 0.0000 0.0000 -13508.9950 2270.2346 0.0000 0.0000 861.9472 -10376.8132 148.9020 -11238.7604 -10375.7501 149.8424 168.2035 211.9941 28850.3018 3.5118 3.4555
TCL: Running 100000 steps at 180 kelvin.
TCL: Setting parameter langevinTemp to 180
TCL: Running for 100000 steps
ETITLE: TS BOND ANGLE DIHED IMPRP ELECT VDW BOUNDARY MISC KINETIC TOTAL TEMP POTENTIAL TOTAL3 TEMPAVG PRESSURE GPRESSURE VOLUME PRESSAVG GPRESSAVG
ENERGY: 500000 0.0000 0.0000 0.0000 0.0000 -13508.9950 2270.2346 0.0000 0.0000 861.5119 -10377.2485 148.8268 -11238.7604 -10375.5570 148.8268 168.0159 212.4762 28850.3018 168.0159 212.4762
ENERGY: 600000 0.0000 0.0000 0.0000 0.0000 -12918.8237 2048.7603 0.0000 0.0000 1036.9103 -9833.1531 179.1270 -10870.0633 -9830.2015 179.7987 -284.4477 -197.0783 28870.6266 2.6120 2.5808
TCL: Running 100000 steps at 210 kelvin.
TCL: Setting parameter langevinTemp to 210
TCL: Running for 100000 steps
ETITLE: TS BOND ANGLE DIHED IMPRP ELECT VDW BOUNDARY MISC KINETIC TOTAL TEMP POTENTIAL TOTAL3 TEMPAVG PRESSURE GPRESSURE VOLUME PRESSAVG GPRESSAVG
ENERGY: 600000 0.0000 0.0000 0.0000 0.0000 -12918.8237 2048.7603 0.0000 0.0000 1036.3992 -9833.6641 179.0387 -10870.0633 -9831.6019 179.0387 -272.6276 -198.3273 28870.6266 -272.6276 -198.3273
ENERGY: 700000 0.0000 0.0000 0.0000 0.0000 -12459.7010 1971.9076 0.0000 0.0000 1224.1809 -9263.6125 211.4781 -10487.7933 -9261.8690 209.7005 906.0127 980.3002 28271.6093 2.5395 2.4209
TCL: Running 100000 steps at 240 kelvin.
TCL: Setting parameter langevinTemp to 240
TCL: Running for 100000 steps
ETITLE: TS BOND ANGLE DIHED IMPRP ELECT VDW BOUNDARY MISC KINETIC TOTAL TEMP POTENTIAL TOTAL3 TEMPAVG PRESSURE GPRESSURE VOLUME PRESSAVG GPRESSAVG
ENERGY: 700000 0.0000 0.0000 0.0000 0.0000 -12459.7010 1971.9076 0.0000 0.0000 1223.5622 -9264.2312 211.3713 -10487.7933 -9262.0020 211.3713 909.6038 978.5687 28271.6093 909.6038 978.5687
ENERGY: 800000 0.0000 0.0000 0.0000 0.0000 -11650.5225 1672.5155 0.0000 0.0000 1391.1098 -8586.8972 240.3152 -9978.0070 -8582.8345 240.0145 -177.5280 -62.2594 28993.5200 2.3407 2.3124
TCL: Running 100000 steps at 270 kelvin.
TCL: Setting parameter langevinTemp to 270
TCL: Running for 100000 steps
ETITLE: TS BOND ANGLE DIHED IMPRP ELECT VDW BOUNDARY MISC KINETIC TOTAL TEMP POTENTIAL TOTAL3 TEMPAVG PRESSURE GPRESSURE VOLUME PRESSAVG GPRESSAVG
ENERGY: 800000 0.0000 0.0000 0.0000 0.0000 -11650.5225 1672.5155 0.0000 0.0000 1390.3907 -8587.6162 240.1910 -9978.0070 -8584.5139 240.1910 -156.2328 -63.4499 28993.5200 -156.2328 -63.4499
ENERGY: 900000 0.0000 0.0000 0.0000 0.0000 -11102.3532 1478.2565 0.0000 0.0000 1593.8686 -8030.2281 275.3420 -9624.0967 -8026.0193 269.7352 -654.4363 -558.5272 29777.3639 3.0856 3.1002
TCL: Running 1000000 steps at 300 kelvin.
TCL: Setting parameter langevinTemp to 300
TCL: Running for 1000000 steps
ETITLE: TS BOND ANGLE DIHED IMPRP ELECT VDW BOUNDARY MISC KINETIC TOTAL TEMP POTENTIAL TOTAL3 TEMPAVG PRESSURE GPRESSURE VOLUME PRESSAVG GPRESSAVG
ENERGY: 900000 0.0000 0.0000 0.0000 0.0000 -11102.3532 1478.2565 0.0000 0.0000 1593.0873 -8031.0095 275.2070 -9624.0967 -8028.6537 275.2070 -655.6649 -556.4311 29777.3639 -655.6649 -556.4311
ENERGY: 1100000 0.0000 0.0000 0.0000 0.0000 -10647.0088 1449.3292 0.0000 0.0000 1743.4153 -7454.2644 301.1763 -9197.6797 -7451.7679 299.9989 494.3885 552.7184 30050.1636 2.7711 2.9152
ENERGY: 1300000 0.0000 0.0000 0.0000 0.0000 -10580.1593 1397.5967 0.0000 0.0000 1708.8786 -7473.6840 295.2100 -9182.5626 -7468.6358 299.8747 69.1982 164.8410 29944.0721 3.7718 3.5929
ENERGY: 1500000 0.0000 0.0000 0.0000 0.0000 -10674.2392 1399.4303 0.0000 0.0000 1798.0193 -7476.7897 310.6091 -9274.8089 -7473.7718 300.2040 -101.6691 -65.6963 29924.4163 2.5866 2.6277
ENERGY: 1700000 0.0000 0.0000 0.0000 0.0000 -10727.3255 1489.7104 0.0000 0.0000 1738.9544 -7498.6608 300.4056 -9237.6151 -7494.7230 299.8140 632.8466 749.3974 29713.2966 3.1760 3.2711
ENERGY: 1900000 0.0000 0.0000 0.0000 0.0000 -10753.4341 1476.9756 0.0000 0.0000 1794.2659 -7482.1926 309.9608 -9276.4586 -7479.5658 299.9592 265.5973 474.9474 30046.5637 3.3224 3.2623
TCL: Exiting due to exit command.
