Info: SIMULATION PARAMETERS:
Info: TIMESTEP               2
Info: NUMBER OF STEPS        0
Info: STEPS PER CYCLE        10
Info: PERIODIC CELL BASIS 1  37.435 0 0
Info: PERIODIC CELL BASIS 2  0 34.696 0
Info: PERIODIC CELL BASIS 3  0 0 33.152
Info: PERIODIC CELL CENTER   0 0 0
Info: WRAPPING WATERS AROUND PERIODIC BOUNDARIES ON OUTPUT.
Info: WRAPPING ALL CLUSTERS AROUND PERIODIC BOUNDARIES ON OUTPUT.
Info: FIRST LDB TIMESTEP     50
Info: LAST LDB TIMESTEP     -1
Info: HOM BACKGROUND SCALING 1
Info: PME BACKGROUND SCALING 1
Info: MIN ATOMS PER PATCH    40
Info: EMPTY PATCH LOAD       40 ATOMS
Info: INITIAL TEMPERATURE    300
Info: CENTER OF MASS MOVING INITIALLY? NO
Info: DIELECTRIC             1
Info: EXCLUDE                SCALED ONE-FOUR
Info: 1-4 ELECTROSTATICS SCALED BY 0.833333
Info: MODIFIED 1-4 VDW PARAMETERS WILL BE USED
Info: DCD FILENAME           mobley_8127829_equil.dcd
Info: DCD FREQUENCY          100000
Info: DCD FIRST STEP         100000
Info: DCD FILE WILL CONTAIN UNIT CELL DATA
Info: XST FILENAME           mobley_8127829_equil.xst
Info: XST FREQUENCY          100000
Info: NO VELOCITY DCD OUTPUT
Info: NO FORCE DCD OUTPUT
Info: OUTPUT FILENAME        mobley_8127829_equil
Info: BINARY OUTPUT FILES WILL BE USED
Info: RESTART FILENAME       mobley_8127829_equil.restart
Info: RESTART FREQUENCY      100000
Info: BINARY RESTART FILES WILL BE USED
Info: CUTOFF                 9
Info: PAIRLIST DISTANCE      11
Info: PAIRLIST SHRINK RATE   0.01
Info: PAIRLIST GROW RATE     0.01
Info: PAIRLIST TRIGGER       0.3
Info: PAIRLISTS PER CYCLE    2
Info: PAIRLISTS ENABLED
Info: MARGIN                 8
Info: HYDROGEN GROUP CUTOFF  2.5
Info: PATCH DIMENSION        21.5
Info: ENERGY OUTPUT STEPS    100000
Info: ENERGY EVALUATION STEPS    100000
Info: OUTPUT ENERGY PRECISION 4
Info: CROSSTERM ENERGY INCLUDED IN DIHEDRAL
Info: TIMING OUTPUT STEPS    1000000
Info: PRESSURE OUTPUT STEPS  100000
Info: FIXED ATOMS ACTIVE
Info: LANGEVIN DYNAMICS ACTIVE
Info: LANGEVIN TEMPERATURE   30
Info: LANGEVIN USING BBK INTEGRATOR
Info: LANGEVIN DAMPING COEFFICIENT IS 1 INVERSE PS
Info: LANGEVIN DYNAMICS APPLIED TO HYDROGENS
Info: LANGEVIN PISTON PRESSURE CONTROL ACTIVE
Info:        TARGET PRESSURE IS 1.01325 BAR
Info:     OSCILLATION PERIOD IS 50 FS
Info:             DECAY TIME IS 25 FS
Info:     PISTON TEMPERATURE IS 300 K
Info:       PRESSURE CONTROL IS GROUP-BASED
Info:    INITIAL STRAIN RATE IS 0 0 0
Info:       CELL FLUCTUATION IS ISOTROPIC
Info: PARTICLE MESH EWALD (PME) ACTIVE
Info: PME TOLERANCE               1e-06
Info: PME EWALD COEFFICIENT       0.348832
Info: PME INTERPOLATION ORDER     4
Info: PME GRID DIMENSIONS         40 36 36
Info: PME MAXIMUM GRID SPACING    1
Info: FULL ELECTROSTATIC EVALUATION FREQUENCY      2
Info: USING VERLET I (r-RESPA) MTS SCHEME.
Info: C1 SPLITTING OF LONG RANGE ELECTROSTATICS
Info: PLACING ATOMS IN PATCHES BY HYDROGEN GROUPS
Info: RIGID BONDS TO HYDROGEN : ALL
Info:         ERROR TOLERANCE : 1e-08
Info:          MAX ITERATIONS : 100
Info: RIGID WATER USING SETTLE ALGORITHM
Info: RANDOM NUMBER SEED     1744093122
Info: USE HYDROGEN BONDS?    NO
Info: Using AMBER format force field!
Info: AMBER PARM FILE        mobley_8127829.prmtop
Info: COORDINATE PDB         mobley_8127829.pdb
Info: Exclusions will be read from PARM file!
Info: SCNB (VDW SCALING)     2
Info: USING ARITHMETIC MEAN TO COMBINE L-J SIGMA PARAMETERS
Info: BINARY COORDINATES     mobley_8127829_min.coor
Info: SUMMARY OF PARAMETERS:
Info: 7 BONDS
Info: 7 ANGLES
Info: 5 DIHEDRAL
Info: 0 IMPROPER
Info: 0 CROSSTERM
Info: 0 VDW
Info: 21 VDW_PAIRS
Info: 0 NBTHOLE_PAIRS
Info: STRUCTURE SUMMARY:
Info: 2916 ATOMS
Info: 2916 BONDS
Info: 30 ANGLES
Info: 45 DIHEDRALS
Info: 0 IMPROPERS
Info: 0 CROSSTERMS
Info: 2982 EXCLUSIONS
Info: 18 FIXED ATOMS
Info: 2908 RIGID BONDS
Info: 10 RIGID BONDS BETWEEN FIXED ATOMS
Info: 5796 DEGREES OF FREEDOM
Info: 974 HYDROGEN GROUPS
Info: 4 ATOMS IN LARGEST HYDROGEN GROUP
Info: 974 MIGRATION GROUPS
Info: 4 ATOMS IN LARGEST MIGRATION GROUP
Info: 8 HYDROGEN GROUPS WITH ALL ATOMS FIXED
Info: TOTAL MASS = 17509.6 amu
Info: TOTAL CHARGE = 1.86265e-08 e
Info: MASS DENSITY = 0.675257 g/cm^3
Info: ATOM DENSITY = 0.0677206 atoms/A^3
Info: ADDED 0 IMPLICIT EXCLUSIONS
Info: NONBONDED TABLE R-SQUARED SPACING: 0.0625
Info: NONBONDED TABLE SIZE: 705 POINTS
Info: REMOVING COM VELOCITY -0.172981 0.298246 0.0607565
TCL: Running for 100000 steps
ETITLE: TS BOND ANGLE DIHED IMPRP ELECT VDW BOUNDARY MISC KINETIC TOTAL TEMP POTENTIAL TOTAL3 TEMPAVG PRESSURE GPRESSURE VOLUME PRESSAVG GPRESSAVG
ENERGY: 0 0.0000 0.0000 0.0000 0.0000 -13437.4255 2344.2343 0.0000 0.0000 1756.5982 -9336.5931 305.0243 -11093.1913 -9336.2445 305.0243 282.7179 309.4501 43059.3015 282.7179 309.4501
ENERGY: 100000 0.0000 0.0000 0.0000 0.0000 -14056.0635 2446.2553 0.0000 0.0000 171.5674 -11438.2409 29.7918 -11609.8083 -11437.7502 30.8932 -44.6861 10.1233 28381.2364 3.9374 3.9330
TCL: Running 100000 steps at 60 kelvin.
TCL: Setting parameter langevinTemp to 60
TCL: Running for 100000 steps
ETITLE: TS BOND ANGLE DIHED IMPRP ELECT VDW BOUNDARY MISC KINETIC TOTAL TEMP POTENTIAL TOTAL3 TEMPAVG PRESSURE GPRESSURE VOLUME PRESSAVG GPRESSAVG
ENERGY: 100000 0.0000 0.0000 0.0000 0.0000 -14056.0635 2446.2553 0.0000 0.0000 171.4831 -11438.3252 29.7772 -11609.8083 -11437.8540 29.7772 -46.3829 10.0979 28381.2364 -46.3829 10.0979
ENERGY: 200000 0.0000 0.0000 0.0000 0.0000 -13882.4951 2360.0952 0.0000 0.0000 341.1176 -11181.2823 59.2333 -11522.3999 -11180.5238 60.0239 -277.4124 -285.0551 28229.3945 3.8911 3.9396
TCL: Running 100000 steps at 90 kelvin.
TCL: Setting parameter langevinTemp to 90
TCL: Running for 100000 steps
ETITLE: TS BOND ANGLE DIHED IMPRP ELECT VDW BOUNDARY MISC KINETIC TOTAL TEMP POTENTIAL TOTAL3 TEMPAVG PRESSURE GPRESSURE VOLUME PRESSAVG GPRESSAVG
ENERGY: 200000 0.0000 0.0000 0.0000 0.0000 -13882.4951 2360.0952 0.0000 0.0000 340.9466 -11181.4533 59.2036 -11522.3999 -11180.7158 59.2036 -323.0403 -285.2264 28229.3945 -323.0403 -285.2264
ENERGY: 300000 0.0000 0.0000 0.0000 0.0000 -14009.8488 2541.7816 0.0000 0.0000 509.4597 -10958.6074 88.4651 -11468.0672 -10957.0244 89.9785 1595.0904 1618.7050 27889.5675 3.7024 3.8104
TCL: Running 100000 steps at 120 kelvin.
TCL: Setting parameter langevinTemp to 120
TCL: Running for 100000 steps
ETITLE: TS BOND ANGLE DIHED IMPRP ELECT VDW BOUNDARY MISC KINETIC TOTAL TEMP POTENTIAL TOTAL3 TEMPAVG PRESSURE GPRESSURE VOLUME PRESSAVG GPRESSAVG
ENERGY: 300000 0.0000 0.0000 0.0000 0.0000 -14009.8488 2541.7816 0.0000 0.0000 509.2113 -10958.8559 88.4219 -11468.0672 -10958.1988 88.4219 1569.4480 1619.3013 27889.5675 1569.4480 1619.3013
ENERGY: 400000 0.0000 0.0000 0.0000 0.0000 -13559.5302 2236.1841 0.0000 0.0000 679.7726 -10643.5735 118.0390 -11323.3461 -10642.1111 119.9268 -615.7461 -590.1906 28589.1611 3.3575 3.4622
TCL: Running 100000 steps at 150 kelvin.
TCL: Setting parameter langevinTemp to 150
TCL: Running for 100000 steps
ETITLE: TS BOND ANGLE DIHED IMPRP ELECT VDW BOUNDARY MISC KINETIC TOTAL TEMP POTENTIAL TOTAL3 TEMPAVG PRESSURE GPRESSURE VOLUME PRESSAVG GPRESSAVG
ENERGY: 400000 0.0000 0.0000 0.0000 0.0000 -13559.5302 2236.1841 0.0000 0.0000 679.4232 -10643.9229 117.9784 -11323.3461 -10642.4210 117.9784 -641.5977 -591.0515 28589.1611 -641.5977 -591.0515
ENERGY: 500000 0.0000 0.0000 0.0000 0.0000 -13228.1926 2096.0655 0.0000 0.0000 867.7299 -10264.3972 150.6769 -11132.1271 -10261.8071 149.4968 -1265.6849 -1235.4427 29033.6913 3.6540 3.4932
TCL: Running 100000 steps at 180 kelvin.
TCL: Setting parameter langevinTemp to 180
TCL: Running for 100000 steps
ETITLE: TS BOND ANGLE DIHED IMPRP ELECT VDW BOUNDARY MISC KINETIC TOTAL TEMP POTENTIAL TOTAL3 TEMPAVG PRESSURE GPRESSURE VOLUME PRESSAVG GPRESSAVG
ENERGY: 500000 0.0000 0.0000 0.0000 0.0000 -13228.1926 2096.0655 0.0000 0.0000 867.3117 -10264.8154 150.6042 -11132.1271 -10262.9107 150.6042 -1292.9449 -1234.7385 29033.6913 -1292.9449 -1234.7385
ENERGY: 600000 0.0000 0.0000 0.0000 0.0000 -12806.2975 2028.3422 0.0000 0.0000 1011.9905 -9765.9648 175.7270 -10777.9553 -9765.2264 179.8220 -342.7000 -249.5704 28651.8963 2.6928 2.7015
TCL: Running 100000 steps at 210 kelvin.
TCL: Setting parameter langevinTemp to 210
TCL: Running for 100000 steps
ETITLE: TS BOND ANGLE DIHED IMPRP ELECT VDW BOUNDARY MISC KINETIC TOTAL TEMP POTENTIAL TOTAL3 TEMPAVG PRESSURE GPRESSURE VOLUME PRESSAVG GPRESSAVG
ENERGY: 600000 0.0000 0.0000 0.0000 0.0000 -12806.2975 2028.3422 0.0000 0.0000 1011.4549 -9766.5004 175.6340 -10777.9553 -9764.3095 175.6340 -313.2520 -251.8654 28651.8963 -313.2520 -251.8654
ENERGY: 700000 0.0000 0.0000 0.0000 0.0000 -12412.6746 1998.5377 0.0000 0.0000 1196.5298 -9217.6071 207.7713 -10414.1369 -9215.4808 209.9272 1012.5717 1137.9240 28183.3174 4.3363 4.2729
TCL: Running 100000 steps at 240 kelvin.
TCL: Setting parameter langevinTemp to 240
TCL: Running for 100000 steps
ETITLE: TS BOND ANGLE DIHED IMPRP ELECT VDW BOUNDARY MISC KINETIC TOTAL TEMP POTENTIAL TOTAL3 TEMPAVG PRESSURE GPRESSURE VOLUME PRESSAVG GPRESSAVG
ENERGY: 700000 0.0000 0.0000 0.0000 0.0000 -12412.6746 1998.5377 0.0000 0.0000 1195.9150 -9218.2219 207.6645 -10414.1369 -9216.4196 207.6645 1063.3971 1137.2623 28183.3174 1063.3971 1137.2623
ENERGY: 800000 0.0000 0.0000 0.0000 0.0000 -11546.6178 1613.9405 0.0000 0.0000 1385.5479 -8547.1293 240.5933 -9932.6772 -8544.0164 239.8810 -558.8029 -454.0838 28831.7151 3.9392 3.8173
TCL: Running 100000 steps at 270 kelvin.
TCL: Setting parameter langevinTemp to 270
TCL: Running for 100000 steps
ETITLE: TS BOND ANGLE DIHED IMPRP ELECT VDW BOUNDARY MISC KINETIC TOTAL TEMP POTENTIAL TOTAL3 TEMPAVG PRESSURE GPRESSURE VOLUME PRESSAVG GPRESSAVG
ENERGY: 800000 0.0000 0.0000 0.0000 0.0000 -11546.6178 1613.9405 0.0000 0.0000 1384.8794 -8547.7978 240.4772 -9932.6772 -8545.4125 240.4772 -552.7938 -453.9331 28831.7151 -552.7938 -453.9331
ENERGY: 900000 0.0000 0.0000 0.0000 0.0000 -10904.6379 1471.1307 0.0000 0.0000 1552.8597 -7880.6476 269.6462 -9433.5073 -7878.5673 269.8017 -464.7041 -420.0662 29807.8983 2.3691 2.2184
TCL: Running 1000000 steps at 300 kelvin.
TCL: Setting parameter langevinTemp to 300
TCL: Running for 1000000 steps
ETITLE: TS BOND ANGLE DIHED IMPRP ELECT VDW BOUNDARY MISC KINETIC TOTAL TEMP POTENTIAL TOTAL3 TEMPAVG PRESSURE GPRESSURE VOLUME PRESSAVG GPRESSAVG
ENERGY: 900000 0.0000 0.0000 0.0000 0.0000 -10904.6379 1471.1307 0.0000 0.0000 1552.0308 -7881.4764 269.5022 -9433.5073 -7878.9774 269.5022 -500.3724 -419.8483 29807.8983 -500.3724 -419.8483
ENERGY: 1100000 0.0000 0.0000 0.0000 0.0000 -10507.2944 1359.3994 0.0000 0.0000 1753.4520 -7394.4431 304.4780 -9147.8951 -7390.1528 300.0716 -377.2343 -268.1737 30149.2046 4.0387 4.0241
ENERGY: 1300000 0.0000 0.0000 0.0000 0.0000 -10597.3637 1456.4612 0.0000 0.0000 1711.5431 -7429.3594 297.2007 -9140.9025 -7426.2600 300.2210 262.0653 315.0384 30138.3857 3.0503 3.1094
ENERGY: 1500000 0.0000 0.0000 0.0000 0.0000 -10576.3656 1444.5055 0.0000 0.0000 1703.0061 -7428.8540 295.7183 -9131.8602 -7426.2435 300.1736 549.3642 642.2757 29671.4072 3.7119 3.5877
ENERGY: 1700000 0.0000 0.0000 0.0000 0.0000 -10592.6838 1446.9649 0.0000 0.0000 1703.5564 -7442.1624 295.8139 -9145.7189 -7438.3687 300.7921 417.8346 532.4194 29569.8028 3.9259 4.1378
ENERGY: 1900000 0.0000 0.0000 0.0000 0.0000 -10707.9870 1494.1454 0.0000 0.0000 1772.7126 -7441.1290 307.8225 -9213.8416 -7439.7732 300.6949 707.3203 793.9831 29483.0936 2.8981 2.8650
TCL: Exiting due to exit command.
