Info: SIMULATION PARAMETERS:
Info: TIMESTEP               2
Info: NUMBER OF STEPS        0
Info: STEPS PER CYCLE        10
Info: PERIODIC CELL BASIS 1  36.592 0 0
Info: PERIODIC CELL BASIS 2  0 35.779 0
Info: PERIODIC CELL BASIS 3  0 0 33.27
Info: PERIODIC CELL CENTER   0 0 0
Info: WRAPPING WATERS AROUND PERIODIC BOUNDARIES ON OUTPUT.
Info: WRAPPING ALL CLUSTERS AROUND PERIODIC BOUNDARIES ON OUTPUT.
Info: FIRST LDB TIMESTEP     50
Info: LAST LDB TIMESTEP     -1
Info: HOM BACKGROUND SCALING 1
Info: PME BACKGROUND SCALING 1
Info: MIN ATOMS PER PATCH    40
Info: EMPTY PATCH LOAD       40 ATOMS
Info: INITIAL TEMPERATURE    300
Info: CENTER OF MASS MOVING INITIALLY? NO
Info: DIELECTRIC             1
Info: EXCLUDE                SCALED ONE-FOUR
Info: 1-4 ELECTROSTATICS SCALED BY 0.833333
Info: MODIFIED 1-4 VDW PARAMETERS WILL BE USED
Info: DCD FILENAME           mobley_9705941_equil.dcd
Info: DCD FREQUENCY          100000
Info: DCD FIRST STEP         100000
Info: DCD FILE WILL CONTAIN UNIT CELL DATA
Info: XST FILENAME           mobley_9705941_equil.xst
Info: XST FREQUENCY          100000
Info: NO VELOCITY DCD OUTPUT
Info: NO FORCE DCD OUTPUT
Info: OUTPUT FILENAME        mobley_9705941_equil
Info: BINARY OUTPUT FILES WILL BE USED
Info: RESTART FILENAME       mobley_9705941_equil.restart
Info: RESTART FREQUENCY      100000
Info: BINARY RESTART FILES WILL BE USED
Info: CUTOFF                 9
Info: PAIRLIST DISTANCE      11
Info: PAIRLIST SHRINK RATE   0.01
Info: PAIRLIST GROW RATE     0.01
Info: PAIRLIST TRIGGER       0.3
Info: PAIRLISTS PER CYCLE    2
Info: PAIRLISTS ENABLED
Info: MARGIN                 8
Info: HYDROGEN GROUP CUTOFF  2.5
Info: PATCH DIMENSION        21.5
Info: ENERGY OUTPUT STEPS    100000
Info: ENERGY EVALUATION STEPS    100000
Info: OUTPUT ENERGY PRECISION 4
Info: CROSSTERM ENERGY INCLUDED IN DIHEDRAL
Info: TIMING OUTPUT STEPS    1000000
Info: PRESSURE OUTPUT STEPS  100000
Info: FIXED ATOMS ACTIVE
Info: LANGEVIN DYNAMICS ACTIVE
Info: LANGEVIN TEMPERATURE   30
Info: LANGEVIN USING BBK INTEGRATOR
Info: LANGEVIN DAMPING COEFFICIENT IS 1 INVERSE PS
Info: LANGEVIN DYNAMICS APPLIED TO HYDROGENS
Info: LANGEVIN PISTON PRESSURE CONTROL ACTIVE
Info:        TARGET PRESSURE IS 1.01325 BAR
Info:     OSCILLATION PERIOD IS 50 FS
Info:             DECAY TIME IS 25 FS
Info:     PISTON TEMPERATURE IS 300 K
Info:       PRESSURE CONTROL IS GROUP-BASED
Info:    INITIAL STRAIN RATE IS 0 0 0
Info:       CELL FLUCTUATION IS ISOTROPIC
Info: PARTICLE MESH EWALD (PME) ACTIVE
Info: PME TOLERANCE               1e-06
Info: PME EWALD COEFFICIENT       0.348832
Info: PME INTERPOLATION ORDER     4
Info: PME GRID DIMENSIONS         40 36 36
Info: PME MAXIMUM GRID SPACING    1
Info: FULL ELECTROSTATIC EVALUATION FREQUENCY      2
Info: USING VERLET I (r-RESPA) MTS SCHEME.
Info: C1 SPLITTING OF LONG RANGE ELECTROSTATICS
Info: PLACING ATOMS IN PATCHES BY HYDROGEN GROUPS
Info: RIGID BONDS TO HYDROGEN : ALL
Info:         ERROR TOLERANCE : 1e-08
Info:          MAX ITERATIONS : 100
Info: RIGID WATER USING SETTLE ALGORITHM
Info: RANDOM NUMBER SEED     1743728762
Info: USE HYDROGEN BONDS?    NO
Info: Using AMBER format force field!
Info: AMBER PARM FILE        mobley_9705941.prmtop
Info: COORDINATE PDB         mobley_9705941.pdb
Info: Exclusions will be read from PARM file!
Info: SCNB (VDW SCALING)     2
Info: USING ARITHMETIC MEAN TO COMBINE L-J SIGMA PARAMETERS
Info: BINARY COORDINATES     mobley_9705941_min.coor
Info: SUMMARY OF PARAMETERS:
Info: 9 BONDS
Info: 11 ANGLES
Info:   11 HARMONIC
Info:   0 COSINE-BASED
Info: 4 DIHEDRAL
Info: 0 IMPROPER
Info: 0 CROSSTERM
Info: 0 VDW
Info: 36 VDW_PAIRS
Info: 0 NBTHOLE_PAIRS
Info: STRUCTURE SUMMARY:
Info: 2925 ATOMS
Info: 2925 BONDS
Info: 19 ANGLES
Info: 26 DIHEDRALS
Info: 0 IMPROPERS
Info: 0 CROSSTERMS
Info: 2961 EXCLUSIONS
Info: 12 FIXED ATOMS
Info: 2919 RIGID BONDS
Info: 6 RIGID BONDS BETWEEN FIXED ATOMS
Info: 5826 DEGREES OF FREEDOM
Info: 977 HYDROGEN GROUPS
Info: 4 ATOMS IN LARGEST HYDROGEN GROUP
Info: 977 MIGRATION GROUPS
Info: 4 ATOMS IN LARGEST MIGRATION GROUP
Info: 6 HYDROGEN GROUPS WITH ALL ATOMS FIXED
Info: TOTAL MASS = 17591.7 amu
Info: TOTAL CHARGE = 3.72529e-09 e
Info: MASS DENSITY = 0.670656 g/cm^3
Info: ATOM DENSITY = 0.067152 atoms/A^3
Info: ADDED 0 IMPLICIT EXCLUSIONS
Info: NONBONDED TABLE R-SQUARED SPACING: 0.0625
Info: NONBONDED TABLE SIZE: 705 POINTS
Info: REMOVING COM VELOCITY 0.0731401 0.118558 0.00970895
TCL: Running for 100000 steps
ETITLE: TS BOND ANGLE DIHED IMPRP ELECT VDW BOUNDARY MISC KINETIC TOTAL TEMP POTENTIAL TOTAL3 TEMPAVG PRESSURE GPRESSURE VOLUME PRESSAVG GPRESSAVG
ENERGY: 0 0.0000 0.0000 0.0000 0.0000 -13518.7965 2364.3284 0.0000 0.0000 1746.3582 -9408.1099 301.6847 -11154.4681 -9407.7726 301.6847 380.2619 407.4637 43557.9213 380.2619 407.4637
ENERGY: 100000 0.0000 0.0000 0.0000 0.0000 -14283.2751 2628.5431 0.0000 0.0000 172.6424 -11482.0896 29.8241 -11654.7320 -11481.5399 30.9331 1505.9362 1557.1220 28523.8882 4.1706 4.1604
TCL: Running 100000 steps at 60 kelvin.
TCL: Setting parameter langevinTemp to 60
TCL: Running for 100000 steps
ETITLE: TS BOND ANGLE DIHED IMPRP ELECT VDW BOUNDARY MISC KINETIC TOTAL TEMP POTENTIAL TOTAL3 TEMPAVG PRESSURE GPRESSURE VOLUME PRESSAVG GPRESSAVG
ENERGY: 100000 0.0000 0.0000 0.0000 0.0000 -14283.2751 2628.5431 0.0000 0.0000 172.5551 -11482.1769 29.8090 -11654.7320 -11481.9718 29.8090 1499.2417 1557.4035 28523.8882 1499.2417 1557.4035
ENERGY: 200000 0.0000 0.0000 0.0000 0.0000 -13947.1165 2341.5400 0.0000 0.0000 342.3273 -11263.2492 59.1373 -11605.5765 -11262.5908 60.0093 -704.9781 -640.5756 28569.0037 1.1299 1.2537
TCL: Running 100000 steps at 90 kelvin.
TCL: Setting parameter langevinTemp to 90
TCL: Running for 100000 steps
ETITLE: TS BOND ANGLE DIHED IMPRP ELECT VDW BOUNDARY MISC KINETIC TOTAL TEMP POTENTIAL TOTAL3 TEMPAVG PRESSURE GPRESSURE VOLUME PRESSAVG GPRESSAVG
ENERGY: 200000 0.0000 0.0000 0.0000 0.0000 -13947.1165 2341.5400 0.0000 0.0000 342.1489 -11263.4276 59.1065 -11605.5765 -11262.8358 59.1065 -702.2653 -640.6505 28569.0037 -702.2653 -640.6505
ENERGY: 300000 0.0000 0.0000 0.0000 0.0000 -13919.0714 2402.1966 0.0000 0.0000 518.4267 -10998.4481 89.5586 -11516.8748 -10997.3356 89.8902 225.7115 309.1682 28357.4519 3.4449 3.3961
TCL: Running 100000 steps at 120 kelvin.
TCL: Setting parameter langevinTemp to 120
TCL: Running for 100000 steps
ETITLE: TS BOND ANGLE DIHED IMPRP ELECT VDW BOUNDARY MISC KINETIC TOTAL TEMP POTENTIAL TOTAL3 TEMPAVG PRESSURE GPRESSURE VOLUME PRESSAVG GPRESSAVG
ENERGY: 300000 0.0000 0.0000 0.0000 0.0000 -13919.0714 2402.1966 0.0000 0.0000 518.1682 -10998.7066 89.5139 -11516.8748 -10997.6710 89.5139 247.4451 309.2267 28357.4519 247.4451 309.2267
ENERGY: 400000 0.0000 0.0000 0.0000 0.0000 -13602.2686 2168.5796 0.0000 0.0000 707.0826 -10726.6064 122.1490 -11433.6891 -10724.7895 119.9397 -1478.4576 -1452.8954 28783.9293 3.7544 3.7944
TCL: Running 100000 steps at 150 kelvin.
TCL: Setting parameter langevinTemp to 150
TCL: Running for 100000 steps
ETITLE: TS BOND ANGLE DIHED IMPRP ELECT VDW BOUNDARY MISC KINETIC TOTAL TEMP POTENTIAL TOTAL3 TEMPAVG PRESSURE GPRESSURE VOLUME PRESSAVG GPRESSAVG
ENERGY: 400000 0.0000 0.0000 0.0000 0.0000 -13602.2686 2168.5796 0.0000 0.0000 706.7265 -10726.9625 122.0875 -11433.6891 -10725.2494 122.0875 -1495.5526 -1452.6387 28783.9293 -1495.5526 -1452.6387
ENERGY: 500000 0.0000 0.0000 0.0000 0.0000 -13429.4745 2193.2057 0.0000 0.0000 859.2957 -10376.9731 148.4440 -11236.2688 -10373.9396 149.6240 -450.6640 -401.5547 28727.2839 2.9033 2.9355
TCL: Running 100000 steps at 180 kelvin.
TCL: Setting parameter langevinTemp to 180
TCL: Running for 100000 steps
ETITLE: TS BOND ANGLE DIHED IMPRP ELECT VDW BOUNDARY MISC KINETIC TOTAL TEMP POTENTIAL TOTAL3 TEMPAVG PRESSURE GPRESSURE VOLUME PRESSAVG GPRESSAVG
ENERGY: 500000 0.0000 0.0000 0.0000 0.0000 -13429.4745 2193.2057 0.0000 0.0000 858.8473 -10377.4215 148.3665 -11236.2688 -10375.1944 148.3665 -442.4375 -401.8771 28727.2839 -442.4375 -401.8771
ENERGY: 600000 0.0000 0.0000 0.0000 0.0000 -13064.7757 2127.9754 0.0000 0.0000 1026.3089 -9910.4913 177.2956 -10936.8002 -9907.6133 179.7349 85.9623 140.1517 28559.3892 2.9673 2.9687
TCL: Running 100000 steps at 210 kelvin.
TCL: Setting parameter langevinTemp to 210
TCL: Running for 100000 steps
ETITLE: TS BOND ANGLE DIHED IMPRP ELECT VDW BOUNDARY MISC KINETIC TOTAL TEMP POTENTIAL TOTAL3 TEMPAVG PRESSURE GPRESSURE VOLUME PRESSAVG GPRESSAVG
ENERGY: 600000 0.0000 0.0000 0.0000 0.0000 -13064.7757 2127.9754 0.0000 0.0000 1025.7789 -9911.0213 177.2041 -10936.8002 -9909.4274 177.2041 76.7956 140.7849 28559.3892 76.7956 140.7849
ENERGY: 700000 0.0000 0.0000 0.0000 0.0000 -12222.1708 1808.2047 0.0000 0.0000 1222.4032 -9191.5630 211.1711 -10413.9662 -9187.9918 210.1145 -246.5513 -144.7009 28038.1094 4.5125 4.3872
TCL: Running 100000 steps at 240 kelvin.
TCL: Setting parameter langevinTemp to 240
TCL: Running for 100000 steps
ETITLE: TS BOND ANGLE DIHED IMPRP ELECT VDW BOUNDARY MISC KINETIC TOTAL TEMP POTENTIAL TOTAL3 TEMPAVG PRESSURE GPRESSURE VOLUME PRESSAVG GPRESSAVG
ENERGY: 700000 0.0000 0.0000 0.0000 0.0000 -12222.1708 1808.2047 0.0000 0.0000 1221.8078 -9192.1584 211.0682 -10413.9662 -9190.4941 211.0682 -242.1745 -143.8000 28038.1094 -242.1745 -143.8000
ENERGY: 800000 0.0000 0.0000 0.0000 0.0000 -11653.4949 1668.5129 0.0000 0.0000 1398.2954 -8586.6866 241.5566 -9984.9820 -8583.8241 239.9872 -284.2571 -178.7808 28865.2159 3.9627 3.9295
TCL: Running 100000 steps at 270 kelvin.
TCL: Setting parameter langevinTemp to 270
TCL: Running for 100000 steps
ETITLE: TS BOND ANGLE DIHED IMPRP ELECT VDW BOUNDARY MISC KINETIC TOTAL TEMP POTENTIAL TOTAL3 TEMPAVG PRESSURE GPRESSURE VOLUME PRESSAVG GPRESSAVG
ENERGY: 800000 0.0000 0.0000 0.0000 0.0000 -11653.4949 1668.5129 0.0000 0.0000 1397.5911 -8587.3909 241.4349 -9984.9820 -8585.6683 241.4349 -265.6097 -178.9084 28865.2159 -265.6097 -178.9084
ENERGY: 900000 0.0000 0.0000 0.0000 0.0000 -11040.5825 1513.4704 0.0000 0.0000 1584.9496 -7942.1625 273.8012 -9527.1121 -7940.0283 270.8839 -147.8132 -121.5483 29541.0441 3.4687 3.3122
TCL: Running 1000000 steps at 300 kelvin.
TCL: Setting parameter langevinTemp to 300
TCL: Running for 1000000 steps
ETITLE: TS BOND ANGLE DIHED IMPRP ELECT VDW BOUNDARY MISC KINETIC TOTAL TEMP POTENTIAL TOTAL3 TEMPAVG PRESSURE GPRESSURE VOLUME PRESSAVG GPRESSAVG
ENERGY: 900000 0.0000 0.0000 0.0000 0.0000 -11040.5825 1513.4704 0.0000 0.0000 1584.1717 -7942.9404 273.6668 -9527.1121 -7940.1712 273.6668 -193.8768 -123.4189 29541.0441 -193.8768 -123.4189
ENERGY: 1100000 0.0000 0.0000 0.0000 0.0000 -10693.3529 1468.0490 0.0000 0.0000 1691.1171 -7534.1868 292.1417 -9225.3039 -7530.7091 300.3487 246.5848 328.5973 29834.0048 3.0291 2.9016
ENERGY: 1300000 0.0000 0.0000 0.0000 0.0000 -10591.5322 1379.1581 0.0000 0.0000 1800.3271 -7412.0471 311.0078 -9212.3741 -7409.2131 300.2798 -106.6296 -59.2661 29705.0190 4.4236 4.2351
ENERGY: 1500000 0.0000 0.0000 0.0000 0.0000 -10594.8804 1371.1827 0.0000 0.0000 1742.6736 -7481.0242 301.0481 -9223.6978 -7480.1963 300.3997 -567.2777 -426.6988 30144.1757 3.9310 3.7205
ENERGY: 1700000 0.0000 0.0000 0.0000 0.0000 -10577.1379 1468.6827 0.0000 0.0000 1692.4746 -7415.9806 292.3762 -9108.4552 -7411.4274 300.4503 301.1029 426.8226 30297.0974 4.0946 4.1223
ENERGY: 1900000 0.0000 0.0000 0.0000 0.0000 -10689.3456 1500.0464 0.0000 0.0000 1735.2151 -7454.0841 299.7597 -9189.2992 -7450.7750 300.4785 581.4917 627.4458 30106.2359 2.0921 1.9293
TCL: Exiting due to exit command.
