Info: SIMULATION PARAMETERS:
Info: TIMESTEP               2
Info: NUMBER OF STEPS        0
Info: STEPS PER CYCLE        10
Info: PERIODIC CELL BASIS 1  36.592 0 0
Info: PERIODIC CELL BASIS 2  0 36.451 0
Info: PERIODIC CELL BASIS 3  0 0 33.876
Info: PERIODIC CELL CENTER   0 0 0
Info: WRAPPING WATERS AROUND PERIODIC BOUNDARIES ON OUTPUT.
Info: WRAPPING ALL CLUSTERS AROUND PERIODIC BOUNDARIES ON OUTPUT.
Info: FIRST LDB TIMESTEP     50
Info: LAST LDB TIMESTEP     -1
Info: HOM BACKGROUND SCALING 1
Info: PME BACKGROUND SCALING 1
Info: MIN ATOMS PER PATCH    40
Info: EMPTY PATCH LOAD       40 ATOMS
Info: INITIAL TEMPERATURE    300
Info: CENTER OF MASS MOVING INITIALLY? NO
Info: DIELECTRIC             1
Info: EXCLUDE                SCALED ONE-FOUR
Info: 1-4 ELECTROSTATICS SCALED BY 0.833333
Info: MODIFIED 1-4 VDW PARAMETERS WILL BE USED
Info: DCD FILENAME           mobley_6358463_equil.dcd
Info: DCD FREQUENCY          100000
Info: DCD FIRST STEP         100000
Info: DCD FILE WILL CONTAIN UNIT CELL DATA
Info: XST FILENAME           mobley_6358463_equil.xst
Info: XST FREQUENCY          100000
Info: NO VELOCITY DCD OUTPUT
Info: NO FORCE DCD OUTPUT
Info: OUTPUT FILENAME        mobley_6358463_equil
Info: BINARY OUTPUT FILES WILL BE USED
Info: RESTART FILENAME       mobley_6358463_equil.restart
Info: RESTART FREQUENCY      100000
Info: BINARY RESTART FILES WILL BE USED
Info: CUTOFF                 9
Info: PAIRLIST DISTANCE      11
Info: PAIRLIST SHRINK RATE   0.01
Info: PAIRLIST GROW RATE     0.01
Info: PAIRLIST TRIGGER       0.3
Info: PAIRLISTS PER CYCLE    2
Info: PAIRLISTS ENABLED
Info: MARGIN                 8
Info: HYDROGEN GROUP CUTOFF  2.5
Info: PATCH DIMENSION        21.5
Info: ENERGY OUTPUT STEPS    100000
Info: ENERGY EVALUATION STEPS    100000
Info: OUTPUT ENERGY PRECISION 4
Info: CROSSTERM ENERGY INCLUDED IN DIHEDRAL
Info: TIMING OUTPUT STEPS    1000000
Info: PRESSURE OUTPUT STEPS  100000
Info: FIXED ATOMS ACTIVE
Info: LANGEVIN DYNAMICS ACTIVE
Info: LANGEVIN TEMPERATURE   30
Info: LANGEVIN USING BBK INTEGRATOR
Info: LANGEVIN DAMPING COEFFICIENT IS 1 INVERSE PS
Info: LANGEVIN DYNAMICS APPLIED TO HYDROGENS
Info: LANGEVIN PISTON PRESSURE CONTROL ACTIVE
Info:        TARGET PRESSURE IS 1.01325 BAR
Info:     OSCILLATION PERIOD IS 50 FS
Info:             DECAY TIME IS 25 FS
Info:     PISTON TEMPERATURE IS 300 K
Info:       PRESSURE CONTROL IS GROUP-BASED
Info:    INITIAL STRAIN RATE IS 0 0 0
Info:       CELL FLUCTUATION IS ISOTROPIC
Info: PARTICLE MESH EWALD (PME) ACTIVE
Info: PME TOLERANCE               1e-06
Info: PME EWALD COEFFICIENT       0.348832
Info: PME INTERPOLATION ORDER     4
Info: PME GRID DIMENSIONS         40 40 36
Info: PME MAXIMUM GRID SPACING    1
Info: FULL ELECTROSTATIC EVALUATION FREQUENCY      2
Info: USING VERLET I (r-RESPA) MTS SCHEME.
Info: C1 SPLITTING OF LONG RANGE ELECTROSTATICS
Info: PLACING ATOMS IN PATCHES BY HYDROGEN GROUPS
Info: RIGID BONDS TO HYDROGEN : ALL
Info:         ERROR TOLERANCE : 1e-08
Info:          MAX ITERATIONS : 100
Info: RIGID WATER USING SETTLE ALGORITHM
Info: RANDOM NUMBER SEED     1743742880
Info: USE HYDROGEN BONDS?    NO
Info: Using AMBER format force field!
Info: AMBER PARM FILE        mobley_6358463.prmtop
Info: COORDINATE PDB         mobley_6358463.pdb
Info: Exclusions will be read from PARM file!
Info: SCNB (VDW SCALING)     2
Info: USING ARITHMETIC MEAN TO COMBINE L-J SIGMA PARAMETERS
Info: BINARY COORDINATES     mobley_6358463_min.coor
Info: SUMMARY OF PARAMETERS:
Info: 6 BONDS
Info: 5 ANGLES
Info:   5 HARMONIC
Info:   0 COSINE-BASED
Info: 3 DIHEDRAL
Info: 0 IMPROPER
Info: 0 CROSSTERM
Info: 0 VDW
Info: 21 VDW_PAIRS
Info: 0 NBTHOLE_PAIRS
Info: STRUCTURE SUMMARY:
Info: 2946 ATOMS
Info: 2946 BONDS
Info: 30 ANGLES
Info: 42 DIHEDRALS
Info: 0 IMPROPERS
Info: 0 CROSSTERMS
Info: 3009 EXCLUSIONS
Info: 18 FIXED ATOMS
Info: 2932 RIGID BONDS
Info: 4 RIGID BONDS BETWEEN FIXED ATOMS
Info: 5856 DEGREES OF FREEDOM
Info: 990 HYDROGEN GROUPS
Info: 3 ATOMS IN LARGEST HYDROGEN GROUP
Info: 990 MIGRATION GROUPS
Info: 3 ATOMS IN LARGEST MIGRATION GROUP
Info: 14 HYDROGEN GROUPS WITH ALL ATOMS FIXED
Info: TOTAL MASS = 17797.7 amu
Info: TOTAL CHARGE = 0.000300027 e
Info: MASS DENSITY = 0.654088 g/cm^3
Info: ATOM DENSITY = 0.0651996 atoms/A^3
Info: ADDED 0 IMPLICIT EXCLUSIONS
Info: NONBONDED TABLE R-SQUARED SPACING: 0.0625
Info: NONBONDED TABLE SIZE: 705 POINTS
Info: REMOVING COM VELOCITY 0.102116 -0.171471 -0.0790133
TCL: Running for 100000 steps
ETITLE: TS BOND ANGLE DIHED IMPRP ELECT VDW BOUNDARY MISC KINETIC TOTAL TEMP POTENTIAL TOTAL3 TEMPAVG PRESSURE GPRESSURE VOLUME PRESSAVG GPRESSAVG
ENERGY: 0 0.0000 0.0000 0.0000 0.0000 -13684.3799 2367.8058 0.0000 0.0000 1762.7370 -9553.8371 302.9541 -11316.5741 -9553.4834 302.9541 353.6469 390.3053 45184.3167 353.6469 390.3053
ENERGY: 100000 0.0000 0.0000 0.0000 0.0000 -14333.1116 2508.0292 0.0000 0.0000 178.3973 -11646.6851 30.6604 -11825.0824 -11646.1981 30.9318 407.4432 455.5594 28475.2084 3.8022 3.8285
TCL: Running 100000 steps at 60 kelvin.
TCL: Setting parameter langevinTemp to 60
TCL: Running for 100000 steps
ETITLE: TS BOND ANGLE DIHED IMPRP ELECT VDW BOUNDARY MISC KINETIC TOTAL TEMP POTENTIAL TOTAL3 TEMPAVG PRESSURE GPRESSURE VOLUME PRESSAVG GPRESSAVG
ENERGY: 100000 0.0000 0.0000 0.0000 0.0000 -14333.1116 2508.0292 0.0000 0.0000 178.3136 -11646.7688 30.6460 -11825.0824 -11646.4417 30.6460 398.0835 455.6593 28475.2084 398.0835 455.6593
ENERGY: 200000 0.0000 0.0000 0.0000 0.0000 -14279.9671 2512.7161 0.0000 0.0000 342.7156 -11424.5354 58.9011 -11767.2510 -11423.6977 59.9765 927.9129 939.7754 28194.2321 3.3117 3.2779
TCL: Running 100000 steps at 90 kelvin.
TCL: Setting parameter langevinTemp to 90
TCL: Running for 100000 steps
ETITLE: TS BOND ANGLE DIHED IMPRP ELECT VDW BOUNDARY MISC KINETIC TOTAL TEMP POTENTIAL TOTAL3 TEMPAVG PRESSURE GPRESSURE VOLUME PRESSAVG GPRESSAVG
ENERGY: 200000 0.0000 0.0000 0.0000 0.0000 -14279.9671 2512.7161 0.0000 0.0000 342.5434 -11424.7076 58.8715 -11767.2510 -11423.9507 58.8715 891.4931 939.8205 28194.2321 891.4931 939.8205
ENERGY: 300000 0.0000 0.0000 0.0000 0.0000 -14031.6586 2384.9216 0.0000 0.0000 513.1955 -11133.5415 88.2007 -11646.7370 -11132.1768 89.9163 391.8921 424.8766 28230.9133 3.8956 3.8228
TCL: Running 100000 steps at 120 kelvin.
TCL: Setting parameter langevinTemp to 120
TCL: Running for 100000 steps
ETITLE: TS BOND ANGLE DIHED IMPRP ELECT VDW BOUNDARY MISC KINETIC TOTAL TEMP POTENTIAL TOTAL3 TEMPAVG PRESSURE GPRESSURE VOLUME PRESSAVG GPRESSAVG
ENERGY: 300000 0.0000 0.0000 0.0000 0.0000 -14031.6586 2384.9216 0.0000 0.0000 512.9331 -11133.8039 88.1556 -11646.7370 -11132.7514 88.1556 373.6676 425.3443 28230.9133 373.6676 425.3443
ENERGY: 400000 0.0000 0.0000 0.0000 0.0000 -13778.8897 2273.3504 0.0000 0.0000 709.2462 -10796.2931 121.8951 -11505.5393 -10794.6965 119.8722 -182.3839 -115.3587 28600.8208 3.9348 3.9019
TCL: Running 100000 steps at 150 kelvin.
TCL: Setting parameter langevinTemp to 150
TCL: Running for 100000 steps
ETITLE: TS BOND ANGLE DIHED IMPRP ELECT VDW BOUNDARY MISC KINETIC TOTAL TEMP POTENTIAL TOTAL3 TEMPAVG PRESSURE GPRESSURE VOLUME PRESSAVG GPRESSAVG
ENERGY: 400000 0.0000 0.0000 0.0000 0.0000 -13778.8897 2273.3504 0.0000 0.0000 708.8759 -10796.6634 121.8315 -11505.5393 -10795.5947 121.8315 -165.8015 -115.2164 28600.8208 -165.8015 -115.2164
ENERGY: 500000 0.0000 0.0000 0.0000 0.0000 -13611.4802 2283.8775 0.0000 0.0000 871.2473 -10456.3554 149.7376 -11327.6027 -10455.3796 149.9602 460.4864 539.8112 28752.1152 3.9880 3.9186
TCL: Running 100000 steps at 180 kelvin.
TCL: Setting parameter langevinTemp to 180
TCL: Running for 100000 steps
ETITLE: TS BOND ANGLE DIHED IMPRP ELECT VDW BOUNDARY MISC KINETIC TOTAL TEMP POTENTIAL TOTAL3 TEMPAVG PRESSURE GPRESSURE VOLUME PRESSAVG GPRESSAVG
ENERGY: 500000 0.0000 0.0000 0.0000 0.0000 -13611.4802 2283.8775 0.0000 0.0000 870.8380 -10456.7647 149.6672 -11327.6027 -10455.2632 149.6672 485.4178 538.3924 28752.1152 485.4178 538.3924
ENERGY: 600000 0.0000 0.0000 0.0000 0.0000 -13111.1441 2075.7884 0.0000 0.0000 1039.0046 -9996.3511 178.5693 -11035.3557 -9994.9167 180.2777 -168.4551 -126.8981 28775.2750 3.6683 3.5706
TCL: Running 100000 steps at 210 kelvin.
TCL: Setting parameter langevinTemp to 210
TCL: Running for 100000 steps
ETITLE: TS BOND ANGLE DIHED IMPRP ELECT VDW BOUNDARY MISC KINETIC TOTAL TEMP POTENTIAL TOTAL3 TEMPAVG PRESSURE GPRESSURE VOLUME PRESSAVG GPRESSAVG
ENERGY: 600000 0.0000 0.0000 0.0000 0.0000 -13111.1441 2075.7884 0.0000 0.0000 1038.4699 -9996.8858 178.4774 -11035.3557 -9995.2021 178.4774 -197.1003 -127.1777 28775.2750 -197.1003 -127.1777
ENERGY: 700000 0.0000 0.0000 0.0000 0.0000 -12660.2863 2039.5469 0.0000 0.0000 1213.8468 -9406.8927 208.6187 -10620.7394 -9405.2740 209.8377 1047.6407 1170.9743 28668.9837 3.3902 3.2980
TCL: Running 100000 steps at 240 kelvin.
TCL: Setting parameter langevinTemp to 240
TCL: Running for 100000 steps
ETITLE: TS BOND ANGLE DIHED IMPRP ELECT VDW BOUNDARY MISC KINETIC TOTAL TEMP POTENTIAL TOTAL3 TEMPAVG PRESSURE GPRESSURE VOLUME PRESSAVG GPRESSAVG
ENERGY: 700000 0.0000 0.0000 0.0000 0.0000 -12660.2863 2039.5469 0.0000 0.0000 1213.2612 -9407.4782 208.5180 -10620.7394 -9405.1108 208.5180 1079.5701 1170.6203 28668.9837 1079.5701 1170.6203
ENERGY: 800000 0.0000 0.0000 0.0000 0.0000 -11868.1905 1714.4189 0.0000 0.0000 1439.0949 -8714.6767 247.3311 -10153.7716 -8712.0642 239.6663 259.7531 315.7058 28704.3793 4.0420 3.9330
TCL: Running 100000 steps at 270 kelvin.
TCL: Setting parameter langevinTemp to 270
TCL: Running for 100000 steps
ETITLE: TS BOND ANGLE DIHED IMPRP ELECT VDW BOUNDARY MISC KINETIC TOTAL TEMP POTENTIAL TOTAL3 TEMPAVG PRESSURE GPRESSURE VOLUME PRESSAVG GPRESSAVG
ENERGY: 800000 0.0000 0.0000 0.0000 0.0000 -11868.1905 1714.4189 0.0000 0.0000 1438.3990 -8715.3726 247.2115 -10153.7716 -8712.8033 247.2115 235.9657 315.3931 28704.3793 235.9657 315.3931
ENERGY: 900000 0.0000 0.0000 0.0000 0.0000 -11225.3538 1469.9747 0.0000 0.0000 1549.9724 -8205.4067 266.3872 -9755.3791 -8202.5577 269.4511 -771.7314 -731.1517 29590.8737 2.7312 2.5766
TCL: Running 1000000 steps at 300 kelvin.
TCL: Setting parameter langevinTemp to 300
TCL: Running for 1000000 steps
ETITLE: TS BOND ANGLE DIHED IMPRP ELECT VDW BOUNDARY MISC KINETIC TOTAL TEMP POTENTIAL TOTAL3 TEMPAVG PRESSURE GPRESSURE VOLUME PRESSAVG GPRESSAVG
ENERGY: 900000 0.0000 0.0000 0.0000 0.0000 -11225.3538 1469.9747 0.0000 0.0000 1549.2183 -8206.1608 266.2575 -9755.3791 -8203.4988 266.2575 -819.9996 -730.5379 29590.8737 -819.9996 -730.5379
ENERGY: 1100000 0.0000 0.0000 0.0000 0.0000 -10769.7343 1388.3144 0.0000 0.0000 1709.5877 -7671.8322 293.8196 -9381.4199 -7668.6910 300.7705 -784.8479 -654.8649 30841.7372 3.4813 3.5088
ENERGY: 1300000 0.0000 0.0000 0.0000 0.0000 -10647.9890 1394.5687 0.0000 0.0000 1685.5607 -7567.8595 289.6901 -9253.4202 -7564.8561 300.3159 67.0506 84.7389 30194.0889 3.9729 3.9807
ENERGY: 1500000 0.0000 0.0000 0.0000 0.0000 -10938.1505 1497.9600 0.0000 0.0000 1723.2521 -7716.9385 296.1680 -9440.1905 -7713.3415 299.8397 319.8181 403.4134 30101.0706 3.1370 2.9443
ENERGY: 1700000 0.0000 0.0000 0.0000 0.0000 -10770.6526 1467.2942 0.0000 0.0000 1738.0622 -7565.2961 298.7134 -9303.3584 -7563.7293 300.2896 247.3212 373.8460 30433.8066 3.5056 3.5333
ENERGY: 1900000 0.0000 0.0000 0.0000 0.0000 -10752.8959 1432.5138 0.0000 0.0000 1733.8208 -7586.5612 297.9844 -9320.3821 -7581.4347 299.6041 17.4256 83.1402 30517.3964 4.2239 4.2920
TCL: Exiting due to exit command.
