Info: SIMULATION PARAMETERS:
Info: TIMESTEP               2
Info: NUMBER OF STEPS        0
Info: STEPS PER CYCLE        10
Info: PERIODIC CELL BASIS 1  41.123 0 0
Info: PERIODIC CELL BASIS 2  0 35.779 0
Info: PERIODIC CELL BASIS 3  0 0 30.728
Info: PERIODIC CELL CENTER   0 0 0
Info: WRAPPING WATERS AROUND PERIODIC BOUNDARIES ON OUTPUT.
Info: WRAPPING ALL CLUSTERS AROUND PERIODIC BOUNDARIES ON OUTPUT.
Info: FIRST LDB TIMESTEP     50
Info: LAST LDB TIMESTEP     -1
Info: HOM BACKGROUND SCALING 1
Info: PME BACKGROUND SCALING 1
Info: MIN ATOMS PER PATCH    40
Info: EMPTY PATCH LOAD       40 ATOMS
Info: INITIAL TEMPERATURE    300
Info: CENTER OF MASS MOVING INITIALLY? NO
Info: DIELECTRIC             1
Info: EXCLUDE                SCALED ONE-FOUR
Info: 1-4 ELECTROSTATICS SCALED BY 0.833333
Info: MODIFIED 1-4 VDW PARAMETERS WILL BE USED
Info: DCD FILENAME           mobley_2844990_equil.dcd
Info: DCD FREQUENCY          100000
Info: DCD FIRST STEP         100000
Info: DCD FILE WILL CONTAIN UNIT CELL DATA
Info: XST FILENAME           mobley_2844990_equil.xst
Info: XST FREQUENCY          100000
Info: NO VELOCITY DCD OUTPUT
Info: NO FORCE DCD OUTPUT
Info: OUTPUT FILENAME        mobley_2844990_equil
Info: BINARY OUTPUT FILES WILL BE USED
Info: RESTART FILENAME       mobley_2844990_equil.restart
Info: RESTART FREQUENCY      100000
Info: BINARY RESTART FILES WILL BE USED
Info: CUTOFF                 9
Info: PAIRLIST DISTANCE      11
Info: PAIRLIST SHRINK RATE   0.01
Info: PAIRLIST GROW RATE     0.01
Info: PAIRLIST TRIGGER       0.3
Info: PAIRLISTS PER CYCLE    2
Info: PAIRLISTS ENABLED
Info: MARGIN                 8
Info: HYDROGEN GROUP CUTOFF  2.5
Info: PATCH DIMENSION        21.5
Info: ENERGY OUTPUT STEPS    100000
Info: ENERGY EVALUATION STEPS    100000
Info: OUTPUT ENERGY PRECISION 4
Info: CROSSTERM ENERGY INCLUDED IN DIHEDRAL
Info: TIMING OUTPUT STEPS    1000000
Info: PRESSURE OUTPUT STEPS  100000
Info: FIXED ATOMS ACTIVE
Info: LANGEVIN DYNAMICS ACTIVE
Info: LANGEVIN TEMPERATURE   30
Info: LANGEVIN USING BBK INTEGRATOR
Info: LANGEVIN DAMPING COEFFICIENT IS 1 INVERSE PS
Info: LANGEVIN DYNAMICS APPLIED TO HYDROGENS
Info: LANGEVIN PISTON PRESSURE CONTROL ACTIVE
Info:        TARGET PRESSURE IS 1.01325 BAR
Info:     OSCILLATION PERIOD IS 50 FS
Info:             DECAY TIME IS 25 FS
Info:     PISTON TEMPERATURE IS 300 K
Info:       PRESSURE CONTROL IS GROUP-BASED
Info:    INITIAL STRAIN RATE IS 0 0 0
Info:       CELL FLUCTUATION IS ISOTROPIC
Info: PARTICLE MESH EWALD (PME) ACTIVE
Info: PME TOLERANCE               1e-06
Info: PME EWALD COEFFICIENT       0.348832
Info: PME INTERPOLATION ORDER     4
Info: PME GRID DIMENSIONS         44 36 32
Info: PME MAXIMUM GRID SPACING    1
Info: FULL ELECTROSTATIC EVALUATION FREQUENCY      2
Info: USING VERLET I (r-RESPA) MTS SCHEME.
Info: C1 SPLITTING OF LONG RANGE ELECTROSTATICS
Info: PLACING ATOMS IN PATCHES BY HYDROGEN GROUPS
Info: RIGID BONDS TO HYDROGEN : ALL
Info:         ERROR TOLERANCE : 1e-08
Info:          MAX ITERATIONS : 100
Info: RIGID WATER USING SETTLE ALGORITHM
Info: RANDOM NUMBER SEED     1743764272
Info: USE HYDROGEN BONDS?    NO
Info: Using AMBER format force field!
Info: AMBER PARM FILE        mobley_2844990.prmtop
Info: COORDINATE PDB         mobley_2844990.pdb
Info: Exclusions will be read from PARM file!
Info: SCNB (VDW SCALING)     2
Info: USING ARITHMETIC MEAN TO COMBINE L-J SIGMA PARAMETERS
Info: BINARY COORDINATES     mobley_2844990_min.coor
Info: SUMMARY OF PARAMETERS:
Info: 6 BONDS
Info: 5 ANGLES
Info:   5 HARMONIC
Info:   0 COSINE-BASED
Info: 3 DIHEDRAL
Info: 0 IMPROPER
Info: 0 CROSSTERM
Info: 0 VDW
Info: 21 VDW_PAIRS
Info: 0 NBTHOLE_PAIRS
Info: STRUCTURE SUMMARY:
Info: 2986 ATOMS
Info: 2988 BONDS
Info: 38 ANGLES
Info: 68 DIHEDRALS
Info: 0 IMPROPERS
Info: 0 CROSSTERMS
Info: 3073 EXCLUSIONS
Info: 22 FIXED ATOMS
Info: 2968 RIGID BONDS
Info: 4 RIGID BONDS BETWEEN FIXED ATOMS
Info: 5928 DEGREES OF FREEDOM
Info: 1006 HYDROGEN GROUPS
Info: 3 ATOMS IN LARGEST HYDROGEN GROUP
Info: 1006 MIGRATION GROUPS
Info: 3 ATOMS IN LARGEST MIGRATION GROUP
Info: 18 HYDROGEN GROUPS WITH ALL ATOMS FIXED
Info: TOTAL MASS = 18121.8 amu
Info: TOTAL CHARGE = -0.000100005 e
Info: MASS DENSITY = 0.665599 g/cm^3
Info: ATOM DENSITY = 0.0660454 atoms/A^3
Info: ADDED 0 IMPLICIT EXCLUSIONS
Info: NONBONDED TABLE R-SQUARED SPACING: 0.0625
Info: NONBONDED TABLE SIZE: 705 POINTS
Info: REMOVING COM VELOCITY 0.0512462 -0.0458565 0.0872803
TCL: Running for 100000 steps
ETITLE: TS BOND ANGLE DIHED IMPRP ELECT VDW BOUNDARY MISC KINETIC TOTAL TEMP POTENTIAL TOTAL3 TEMPAVG PRESSURE GPRESSURE VOLUME PRESSAVG GPRESSAVG
ENERGY: 0 0.0000 0.0000 0.0000 0.0000 -13707.7401 2407.9604 0.0000 0.0000 1828.9284 -9470.8512 310.5124 -11299.7796 -9470.4989 310.5124 532.3608 566.6775 45211.3299 532.3608 566.6775
ENERGY: 100000 0.0000 0.0000 0.0000 0.0000 -14368.1718 2506.5019 0.0000 0.0000 177.3625 -11684.3074 30.1123 -11861.6699 -11683.7161 30.9371 101.2550 142.6368 29607.6481 3.9335 3.9467
TCL: Running 100000 steps at 60 kelvin.
TCL: Setting parameter langevinTemp to 60
TCL: Running for 100000 steps
ETITLE: TS BOND ANGLE DIHED IMPRP ELECT VDW BOUNDARY MISC KINETIC TOTAL TEMP POTENTIAL TOTAL3 TEMPAVG PRESSURE GPRESSURE VOLUME PRESSAVG GPRESSAVG
ENERGY: 100000 0.0000 0.0000 0.0000 0.0000 -14368.1718 2506.5019 0.0000 0.0000 177.2725 -11684.3975 30.0970 -11861.6699 -11684.0348 30.0970 93.2983 142.6660 29607.6481 93.2983 142.6660
ENERGY: 200000 0.0000 0.0000 0.0000 0.0000 -14251.9283 2457.8652 0.0000 0.0000 358.1220 -11435.9411 60.8013 -11794.0631 -11434.7887 60.0571 138.5950 186.5277 29373.8062 4.7222 4.6639
TCL: Running 100000 steps at 90 kelvin.
TCL: Setting parameter langevinTemp to 90
TCL: Running for 100000 steps
ETITLE: TS BOND ANGLE DIHED IMPRP ELECT VDW BOUNDARY MISC KINETIC TOTAL TEMP POTENTIAL TOTAL3 TEMPAVG PRESSURE GPRESSURE VOLUME PRESSAVG GPRESSAVG
ENERGY: 200000 0.0000 0.0000 0.0000 0.0000 -14251.9283 2457.8652 0.0000 0.0000 357.9419 -11436.1212 60.7708 -11794.0631 -11435.3481 60.7708 116.5184 186.1878 29373.8062 116.5184 186.1878
ENERGY: 300000 0.0000 0.0000 0.0000 0.0000 -14004.2508 2310.0597 0.0000 0.0000 534.5332 -11159.6579 90.7521 -11694.1911 -11157.9655 90.1958 -854.5050 -802.7548 29667.0274 4.0993 4.1200
TCL: Running 100000 steps at 120 kelvin.
TCL: Setting parameter langevinTemp to 120
TCL: Running for 100000 steps
ETITLE: TS BOND ANGLE DIHED IMPRP ELECT VDW BOUNDARY MISC KINETIC TOTAL TEMP POTENTIAL TOTAL3 TEMPAVG PRESSURE GPRESSURE VOLUME PRESSAVG GPRESSAVG
ENERGY: 300000 0.0000 0.0000 0.0000 0.0000 -14004.2508 2310.0597 0.0000 0.0000 534.2639 -11159.9272 90.7064 -11694.1911 -11158.7774 90.7064 -841.6579 -802.1135 29667.0274 -841.6579 -802.1135
ENERGY: 400000 0.0000 0.0000 0.0000 0.0000 -13841.9839 2274.6630 0.0000 0.0000 711.8198 -10855.5012 120.8516 -11567.3210 -10853.1348 119.9594 -615.4972 -611.4941 29862.1186 2.7452 2.7486
TCL: Running 100000 steps at 150 kelvin.
TCL: Setting parameter langevinTemp to 150
TCL: Running for 100000 steps
ETITLE: TS BOND ANGLE DIHED IMPRP ELECT VDW BOUNDARY MISC KINETIC TOTAL TEMP POTENTIAL TOTAL3 TEMPAVG PRESSURE GPRESSURE VOLUME PRESSAVG GPRESSAVG
ENERGY: 400000 0.0000 0.0000 0.0000 0.0000 -13841.9839 2274.6630 0.0000 0.0000 711.4660 -10855.8549 120.7915 -11567.3210 -10854.2876 120.7915 -647.9931 -611.0780 29862.1186 -647.9931 -611.0780
ENERGY: 500000 0.0000 0.0000 0.0000 0.0000 -13723.2031 2289.3769 0.0000 0.0000 861.7847 -10572.0415 146.3123 -11433.8262 -10569.3067 150.2709 89.8770 171.9357 29306.9870 4.7899 4.7138
TCL: Running 100000 steps at 180 kelvin.
TCL: Setting parameter langevinTemp to 180
TCL: Running for 100000 steps
ETITLE: TS BOND ANGLE DIHED IMPRP ELECT VDW BOUNDARY MISC KINETIC TOTAL TEMP POTENTIAL TOTAL3 TEMPAVG PRESSURE GPRESSURE VOLUME PRESSAVG GPRESSAVG
ENERGY: 500000 0.0000 0.0000 0.0000 0.0000 -13723.2031 2289.3769 0.0000 0.0000 861.3661 -10572.4601 146.2413 -11433.8262 -10570.7916 146.2413 112.7376 173.3426 29306.9870 112.7376 173.3426
ENERGY: 600000 0.0000 0.0000 0.0000 0.0000 -13217.2050 2069.8661 0.0000 0.0000 1056.9861 -10090.3529 179.4533 -11147.3389 -10086.1505 179.8656 -522.5196 -510.7151 29455.1598 4.4669 4.4165
TCL: Running 100000 steps at 210 kelvin.
TCL: Setting parameter langevinTemp to 210
TCL: Running for 100000 steps
ETITLE: TS BOND ANGLE DIHED IMPRP ELECT VDW BOUNDARY MISC KINETIC TOTAL TEMP POTENTIAL TOTAL3 TEMPAVG PRESSURE GPRESSURE VOLUME PRESSAVG GPRESSAVG
ENERGY: 600000 0.0000 0.0000 0.0000 0.0000 -13217.2050 2069.8661 0.0000 0.0000 1056.4577 -10090.8812 179.3636 -11147.3389 -10089.0682 179.3636 -570.5232 -508.8977 29455.1598 -570.5232 -508.8977
ENERGY: 700000 0.0000 0.0000 0.0000 0.0000 -12555.6834 1945.5194 0.0000 0.0000 1233.0395 -9377.1245 209.3434 -10610.1640 -9377.0978 209.9068 388.1924 434.2348 29205.6166 2.4725 2.5392
TCL: Running 100000 steps at 240 kelvin.
TCL: Setting parameter langevinTemp to 240
TCL: Running for 100000 steps
ETITLE: TS BOND ANGLE DIHED IMPRP ELECT VDW BOUNDARY MISC KINETIC TOTAL TEMP POTENTIAL TOTAL3 TEMPAVG PRESSURE GPRESSURE VOLUME PRESSAVG GPRESSAVG
ENERGY: 700000 0.0000 0.0000 0.0000 0.0000 -12555.6834 1945.5194 0.0000 0.0000 1232.4207 -9377.7433 209.2383 -10610.1640 -9375.8864 209.2383 362.4910 431.3214 29205.6166 362.4910 431.3214
ENERGY: 800000 0.0000 0.0000 0.0000 0.0000 -11869.2218 1692.5795 0.0000 0.0000 1408.5637 -8768.0786 239.1436 -10176.6423 -8766.2178 239.8010 -217.6545 -98.6790 29495.1831 3.5133 3.5478
TCL: Running 100000 steps at 270 kelvin.
TCL: Setting parameter langevinTemp to 270
TCL: Running for 100000 steps
ETITLE: TS BOND ANGLE DIHED IMPRP ELECT VDW BOUNDARY MISC KINETIC TOTAL TEMP POTENTIAL TOTAL3 TEMPAVG PRESSURE GPRESSURE VOLUME PRESSAVG GPRESSAVG
ENERGY: 800000 0.0000 0.0000 0.0000 0.0000 -11869.2218 1692.5795 0.0000 0.0000 1407.8481 -8768.7942 239.0221 -10176.6423 -8766.6307 239.0221 -183.4577 -99.4441 29495.1831 -183.4577 -99.4441
ENERGY: 900000 0.0000 0.0000 0.0000 0.0000 -11267.5018 1493.6508 0.0000 0.0000 1609.5030 -8164.3481 273.2587 -9773.8510 -8163.1365 269.5093 -493.3922 -426.7828 30061.7976 2.4319 2.2782
TCL: Running 1000000 steps at 300 kelvin.
TCL: Setting parameter langevinTemp to 300
TCL: Running for 1000000 steps
ETITLE: TS BOND ANGLE DIHED IMPRP ELECT VDW BOUNDARY MISC KINETIC TOTAL TEMP POTENTIAL TOTAL3 TEMPAVG PRESSURE GPRESSURE VOLUME PRESSAVG GPRESSAVG
ENERGY: 900000 0.0000 0.0000 0.0000 0.0000 -11267.5018 1493.6508 0.0000 0.0000 1608.7273 -8165.1237 273.1270 -9773.8510 -8162.4274 273.1270 -515.9143 -430.4252 30061.7976 -515.9143 -430.4252
ENERGY: 1100000 0.0000 0.0000 0.0000 0.0000 -10688.7267 1328.8158 0.0000 0.0000 1736.4988 -7623.4120 294.8198 -9359.9108 -7619.6782 300.5187 -784.0556 -688.8658 30586.6674 3.5441 3.5184
ENERGY: 1300000 0.0000 0.0000 0.0000 0.0000 -10736.9105 1465.6326 0.0000 0.0000 1768.3508 -7502.9270 300.2276 -9271.2778 -7501.3989 299.6977 376.6818 421.2417 31299.2560 4.3084 4.3533
ENERGY: 1500000 0.0000 0.0000 0.0000 0.0000 -10897.2851 1451.6532 0.0000 0.0000 1791.1304 -7654.5015 304.0951 -9445.6319 -7651.5238 300.2925 -70.3612 29.6556 30838.3128 2.0562 2.1329
ENERGY: 1700000 0.0000 0.0000 0.0000 0.0000 -10549.7330 1313.3667 0.0000 0.0000 1814.9820 -7421.3843 308.1446 -9236.3663 -7417.8706 299.9654 -760.3806 -645.5902 31364.7019 2.8577 2.9796
ENERGY: 1900000 0.0000 0.0000 0.0000 0.0000 -10688.7171 1373.3671 0.0000 0.0000 1739.9264 -7575.4236 295.4018 -9315.3500 -7573.8048 300.4266 -482.8785 -394.0233 30966.1566 1.5780 1.6223
TCL: Exiting due to exit command.
