Info: SIMULATION PARAMETERS:
Info: TIMESTEP               2
Info: NUMBER OF STEPS        0
Info: STEPS PER CYCLE        10
Info: PERIODIC CELL BASIS 1  37.38 0 0
Info: PERIODIC CELL BASIS 2  0 36.032 0
Info: PERIODIC CELL BASIS 3  0 0 31.855
Info: PERIODIC CELL CENTER   0 0 0
Info: WRAPPING WATERS AROUND PERIODIC BOUNDARIES ON OUTPUT.
Info: WRAPPING ALL CLUSTERS AROUND PERIODIC BOUNDARIES ON OUTPUT.
Info: FIRST LDB TIMESTEP     50
Info: LAST LDB TIMESTEP     -1
Info: HOM BACKGROUND SCALING 1
Info: PME BACKGROUND SCALING 1
Info: MIN ATOMS PER PATCH    40
Info: EMPTY PATCH LOAD       40 ATOMS
Info: INITIAL TEMPERATURE    300
Info: CENTER OF MASS MOVING INITIALLY? NO
Info: DIELECTRIC             1
Info: EXCLUDE                SCALED ONE-FOUR
Info: 1-4 ELECTROSTATICS SCALED BY 0.833333
Info: MODIFIED 1-4 VDW PARAMETERS WILL BE USED
Info: DCD FILENAME           mobley_8057732_equil.dcd
Info: DCD FREQUENCY          100000
Info: DCD FIRST STEP         100000
Info: DCD FILE WILL CONTAIN UNIT CELL DATA
Info: XST FILENAME           mobley_8057732_equil.xst
Info: XST FREQUENCY          100000
Info: NO VELOCITY DCD OUTPUT
Info: NO FORCE DCD OUTPUT
Info: OUTPUT FILENAME        mobley_8057732_equil
Info: BINARY OUTPUT FILES WILL BE USED
Info: RESTART FILENAME       mobley_8057732_equil.restart
Info: RESTART FREQUENCY      100000
Info: BINARY RESTART FILES WILL BE USED
Info: CUTOFF                 9
Info: PAIRLIST DISTANCE      11
Info: PAIRLIST SHRINK RATE   0.01
Info: PAIRLIST GROW RATE     0.01
Info: PAIRLIST TRIGGER       0.3
Info: PAIRLISTS PER CYCLE    2
Info: PAIRLISTS ENABLED
Info: MARGIN                 8
Info: HYDROGEN GROUP CUTOFF  2.5
Info: PATCH DIMENSION        21.5
Info: ENERGY OUTPUT STEPS    100000
Info: ENERGY EVALUATION STEPS    100000
Info: OUTPUT ENERGY PRECISION 4
Info: CROSSTERM ENERGY INCLUDED IN DIHEDRAL
Info: TIMING OUTPUT STEPS    1000000
Info: PRESSURE OUTPUT STEPS  100000
Info: FIXED ATOMS ACTIVE
Info: LANGEVIN DYNAMICS ACTIVE
Info: LANGEVIN TEMPERATURE   30
Info: LANGEVIN USING BBK INTEGRATOR
Info: LANGEVIN DAMPING COEFFICIENT IS 1 INVERSE PS
Info: LANGEVIN DYNAMICS APPLIED TO HYDROGENS
Info: LANGEVIN PISTON PRESSURE CONTROL ACTIVE
Info:        TARGET PRESSURE IS 1.01325 BAR
Info:     OSCILLATION PERIOD IS 50 FS
Info:             DECAY TIME IS 25 FS
Info:     PISTON TEMPERATURE IS 300 K
Info:       PRESSURE CONTROL IS GROUP-BASED
Info:    INITIAL STRAIN RATE IS 0 0 0
Info:       CELL FLUCTUATION IS ISOTROPIC
Info: PARTICLE MESH EWALD (PME) ACTIVE
Info: PME TOLERANCE               1e-06
Info: PME EWALD COEFFICIENT       0.348832
Info: PME INTERPOLATION ORDER     4
Info: PME GRID DIMENSIONS         40 40 32
Info: PME MAXIMUM GRID SPACING    1
Info: FULL ELECTROSTATIC EVALUATION FREQUENCY      2
Info: USING VERLET I (r-RESPA) MTS SCHEME.
Info: C1 SPLITTING OF LONG RANGE ELECTROSTATICS
Info: PLACING ATOMS IN PATCHES BY HYDROGEN GROUPS
Info: RIGID BONDS TO HYDROGEN : ALL
Info:         ERROR TOLERANCE : 1e-08
Info:          MAX ITERATIONS : 100
Info: RIGID WATER USING SETTLE ALGORITHM
Info: RANDOM NUMBER SEED     1743729545
Info: USE HYDROGEN BONDS?    NO
Info: Using AMBER format force field!
Info: AMBER PARM FILE        mobley_8057732.prmtop
Info: COORDINATE PDB         mobley_8057732.pdb
Info: Exclusions will be read from PARM file!
Info: SCNB (VDW SCALING)     2
Info: USING ARITHMETIC MEAN TO COMBINE L-J SIGMA PARAMETERS
Info: BINARY COORDINATES     mobley_8057732_min.coor
Info: SUMMARY OF PARAMETERS:
Info: 7 BONDS
Info: 5 ANGLES
Info:   5 HARMONIC
Info:   0 COSINE-BASED
Info: 3 DIHEDRAL
Info: 0 IMPROPER
Info: 0 CROSSTERM
Info: 0 VDW
Info: 21 VDW_PAIRS
Info: 0 NBTHOLE_PAIRS
Info: STRUCTURE SUMMARY:
Info: 2902 ATOMS
Info: 2902 BONDS
Info: 19 ANGLES
Info: 32 DIHEDRALS
Info: 0 IMPROPERS
Info: 0 CROSSTERMS
Info: 2944 EXCLUSIONS
Info: 13 FIXED ATOMS
Info: 2894 RIGID BONDS
Info: 5 RIGID BONDS BETWEEN FIXED ATOMS
Info: 5778 DEGREES OF FREEDOM
Info: 971 HYDROGEN GROUPS
Info: 3 ATOMS IN LARGEST HYDROGEN GROUP
Info: 971 MIGRATION GROUPS
Info: 3 ATOMS IN LARGEST MIGRATION GROUP
Info: 8 HYDROGEN GROUPS WITH ALL ATOMS FIXED
Info: TOTAL MASS = 17478 amu
Info: TOTAL CHARGE = -0.000199962 e
Info: MASS DENSITY = 0.676464 g/cm^3
Info: ATOM DENSITY = 0.0676382 atoms/A^3
Info: ADDED 0 IMPLICIT EXCLUSIONS
Info: NONBONDED TABLE R-SQUARED SPACING: 0.0625
Info: NONBONDED TABLE SIZE: 705 POINTS
Info: REMOVING COM VELOCITY 0.196933 -0.0369908 0.000359874
TCL: Running for 100000 steps
ETITLE: TS BOND ANGLE DIHED IMPRP ELECT VDW BOUNDARY MISC KINETIC TOTAL TEMP POTENTIAL TOTAL3 TEMPAVG PRESSURE GPRESSURE VOLUME PRESSAVG GPRESSAVG
ENERGY: 0 0.0000 0.0000 0.0000 0.0000 -13444.1980 2324.3543 0.0000 0.0000 1722.4729 -9397.3709 300.0304 -11119.8437 -9397.0179 300.0304 157.5163 185.5581 42904.7401 157.5163 185.5581
ENERGY: 100000 0.0000 0.0000 0.0000 0.0000 -14079.9585 2481.3190 0.0000 0.0000 176.0857 -11422.5539 30.6716 -11598.6395 -11422.2246 30.9436 577.3064 609.3380 28177.6797 4.0757 4.0792
TCL: Running 100000 steps at 60 kelvin.
TCL: Setting parameter langevinTemp to 60
TCL: Running for 100000 steps
ETITLE: TS BOND ANGLE DIHED IMPRP ELECT VDW BOUNDARY MISC KINETIC TOTAL TEMP POTENTIAL TOTAL3 TEMPAVG PRESSURE GPRESSURE VOLUME PRESSAVG GPRESSAVG
ENERGY: 100000 0.0000 0.0000 0.0000 0.0000 -14079.9585 2481.3190 0.0000 0.0000 175.9993 -11422.6403 30.6566 -11598.6395 -11422.2899 30.6566 570.8532 609.1671 28177.6797 570.8532 609.1671
ENERGY: 200000 0.0000 0.0000 0.0000 0.0000 -13941.4924 2391.1976 0.0000 0.0000 355.0422 -11195.2526 61.8433 -11550.2948 -11194.6225 60.0338 53.3182 109.1516 28003.4433 3.7381 3.7360
TCL: Running 100000 steps at 90 kelvin.
TCL: Setting parameter langevinTemp to 90
TCL: Running for 100000 steps
ETITLE: TS BOND ANGLE DIHED IMPRP ELECT VDW BOUNDARY MISC KINETIC TOTAL TEMP POTENTIAL TOTAL3 TEMPAVG PRESSURE GPRESSURE VOLUME PRESSAVG GPRESSAVG
ENERGY: 200000 0.0000 0.0000 0.0000 0.0000 -13941.4924 2391.1976 0.0000 0.0000 354.8719 -11195.4230 61.8137 -11550.2948 -11194.7921 61.8137 44.5201 108.8017 28003.4433 44.5201 108.8017
ENERGY: 300000 0.0000 0.0000 0.0000 0.0000 -13749.7774 2328.4401 0.0000 0.0000 514.0478 -10907.2894 89.5399 -11421.3373 -10906.5689 89.8840 -273.5203 -190.6925 28286.4254 3.8135 3.7440
TCL: Running 100000 steps at 120 kelvin.
TCL: Setting parameter langevinTemp to 120
TCL: Running for 100000 steps
ETITLE: TS BOND ANGLE DIHED IMPRP ELECT VDW BOUNDARY MISC KINETIC TOTAL TEMP POTENTIAL TOTAL3 TEMPAVG PRESSURE GPRESSURE VOLUME PRESSAVG GPRESSAVG
ENERGY: 300000 0.0000 0.0000 0.0000 0.0000 -13749.7774 2328.4401 0.0000 0.0000 513.7834 -10907.5539 89.4938 -11421.3373 -10906.5473 89.4938 -242.6181 -190.5839 28286.4254 -242.6181 -190.5839
ENERGY: 400000 0.0000 0.0000 0.0000 0.0000 -13567.0109 2273.9994 0.0000 0.0000 669.8821 -10623.1294 116.6840 -11293.0115 -10621.7959 119.7948 -248.7932 -179.4569 28462.5151 4.3075 4.2745
TCL: Running 100000 steps at 150 kelvin.
TCL: Setting parameter langevinTemp to 150
TCL: Running for 100000 steps
ETITLE: TS BOND ANGLE DIHED IMPRP ELECT VDW BOUNDARY MISC KINETIC TOTAL TEMP POTENTIAL TOTAL3 TEMPAVG PRESSURE GPRESSURE VOLUME PRESSAVG GPRESSAVG
ENERGY: 400000 0.0000 0.0000 0.0000 0.0000 -13567.0109 2273.9994 0.0000 0.0000 669.5350 -10623.4765 116.6235 -11293.0115 -10622.4837 116.6235 -227.7036 -179.0190 28462.5151 -227.7036 -179.0190
ENERGY: 500000 0.0000 0.0000 0.0000 0.0000 -13490.9777 2327.1422 0.0000 0.0000 886.9131 -10276.9224 154.4877 -11163.8355 -10274.6691 149.9282 918.2175 984.0269 28139.3490 4.4547 4.2880
TCL: Running 100000 steps at 180 kelvin.
TCL: Setting parameter langevinTemp to 180
TCL: Running for 100000 steps
ETITLE: TS BOND ANGLE DIHED IMPRP ELECT VDW BOUNDARY MISC KINETIC TOTAL TEMP POTENTIAL TOTAL3 TEMPAVG PRESSURE GPRESSURE VOLUME PRESSAVG GPRESSAVG
ENERGY: 500000 0.0000 0.0000 0.0000 0.0000 -13490.9777 2327.1422 0.0000 0.0000 886.4865 -10277.3490 154.4134 -11163.8355 -10275.7219 154.4134 937.2709 984.7143 28139.3490 937.2709 984.7143
ENERGY: 600000 0.0000 0.0000 0.0000 0.0000 -12943.8790 2059.2275 0.0000 0.0000 1028.7775 -9855.8740 179.1985 -10884.6515 -9854.2627 180.2710 -468.4492 -388.0232 28613.6159 4.4203 4.2836
TCL: Running 100000 steps at 210 kelvin.
TCL: Setting parameter langevinTemp to 210
TCL: Running for 100000 steps
ETITLE: TS BOND ANGLE DIHED IMPRP ELECT VDW BOUNDARY MISC KINETIC TOTAL TEMP POTENTIAL TOTAL3 TEMPAVG PRESSURE GPRESSURE VOLUME PRESSAVG GPRESSAVG
ENERGY: 600000 0.0000 0.0000 0.0000 0.0000 -12943.8790 2059.2275 0.0000 0.0000 1028.2767 -9856.3748 179.1112 -10884.6515 -9854.4201 179.1112 -446.2372 -389.5278 28613.6159 -446.2372 -389.5278
ENERGY: 700000 0.0000 0.0000 0.0000 0.0000 -12266.5913 1891.8127 0.0000 0.0000 1182.1070 -9192.6715 205.9063 -10374.7785 -9190.9988 210.1093 372.0522 447.9638 27983.1083 3.3064 3.4660
TCL: Running 100000 steps at 240 kelvin.
TCL: Setting parameter langevinTemp to 240
TCL: Running for 100000 steps
ETITLE: TS BOND ANGLE DIHED IMPRP ELECT VDW BOUNDARY MISC KINETIC TOTAL TEMP POTENTIAL TOTAL3 TEMPAVG PRESSURE GPRESSURE VOLUME PRESSAVG GPRESSAVG
ENERGY: 700000 0.0000 0.0000 0.0000 0.0000 -12266.5913 1891.8127 0.0000 0.0000 1181.5109 -9193.2677 205.8025 -10374.7785 -9190.9506 205.8025 378.3432 447.7845 27983.1083 378.3432 447.7845
ENERGY: 800000 0.0000 0.0000 0.0000 0.0000 -11648.2843 1665.6226 0.0000 0.0000 1347.3937 -8635.2679 234.6969 -9982.6617 -8632.6085 239.6532 -440.1165 -348.6838 28773.7807 3.5601 3.5130
TCL: Running 100000 steps at 270 kelvin.
TCL: Setting parameter langevinTemp to 270
TCL: Running for 100000 steps
ETITLE: TS BOND ANGLE DIHED IMPRP ELECT VDW BOUNDARY MISC KINETIC TOTAL TEMP POTENTIAL TOTAL3 TEMPAVG PRESSURE GPRESSURE VOLUME PRESSAVG GPRESSAVG
ENERGY: 800000 0.0000 0.0000 0.0000 0.0000 -11648.2843 1665.6226 0.0000 0.0000 1346.7384 -8635.9233 234.5828 -9982.6617 -8633.3068 234.5828 -431.2759 -347.5704 28773.7807 -431.2759 -347.5704
ENERGY: 900000 0.0000 0.0000 0.0000 0.0000 -11138.3056 1531.1091 0.0000 0.0000 1560.8244 -8046.3721 271.8735 -9607.1965 -8042.8959 269.7956 -358.9130 -216.8499 29195.3757 4.6986 4.6371
TCL: Running 1000000 steps at 300 kelvin.
TCL: Setting parameter langevinTemp to 300
TCL: Running for 1000000 steps
ETITLE: TS BOND ANGLE DIHED IMPRP ELECT VDW BOUNDARY MISC KINETIC TOTAL TEMP POTENTIAL TOTAL3 TEMPAVG PRESSURE GPRESSURE VOLUME PRESSAVG GPRESSAVG
ENERGY: 900000 0.0000 0.0000 0.0000 0.0000 -11138.3056 1531.1091 0.0000 0.0000 1560.0530 -8047.1435 271.7391 -9607.1965 -8044.7929 271.7391 -316.0955 -218.2054 29195.3757 -316.0955 -218.2054
ENERGY: 1100000 0.0000 0.0000 0.0000 0.0000 -10543.1333 1401.6409 0.0000 0.0000 1777.8864 -7363.6060 309.6826 -9141.4924 -7362.3818 299.8970 -107.2796 -9.7301 29878.9875 2.3665 2.5016
ENERGY: 1300000 0.0000 0.0000 0.0000 0.0000 -10712.8006 1518.0792 0.0000 0.0000 1732.4306 -7462.2908 301.7649 -9194.7214 -7462.2892 300.3120 848.8628 1008.9460 29507.8667 2.5124 2.8209
ENERGY: 1500000 0.0000 0.0000 0.0000 0.0000 -10574.2085 1406.8701 0.0000 0.0000 1697.5210 -7469.8174 295.6841 -9167.3384 -7468.7477 299.8405 -119.6467 -18.6805 29944.3842 2.4166 2.3272
ENERGY: 1700000 0.0000 0.0000 0.0000 0.0000 -10458.8265 1296.2321 0.0000 0.0000 1735.4911 -7427.1032 302.2980 -9162.5943 -7423.0654 299.6954 -743.8481 -738.9117 29785.6627 2.8398 2.7955
ENERGY: 1900000 0.0000 0.0000 0.0000 0.0000 -10542.5745 1408.7374 0.0000 0.0000 1749.8905 -7383.9466 304.8061 -9133.8371 -7380.5049 299.9370 161.1423 276.4590 29685.5031 4.0407 3.8644
TCL: Exiting due to exit command.
