Info: SIMULATION PARAMETERS:
Info: TIMESTEP               2
Info: NUMBER OF STEPS        0
Info: STEPS PER CYCLE        10
Info: PERIODIC CELL BASIS 1  36.592 0 0
Info: PERIODIC CELL BASIS 2  0 35.779 0
Info: PERIODIC CELL BASIS 3  0 0 34.68
Info: PERIODIC CELL CENTER   0 0 0
Info: WRAPPING WATERS AROUND PERIODIC BOUNDARIES ON OUTPUT.
Info: WRAPPING ALL CLUSTERS AROUND PERIODIC BOUNDARIES ON OUTPUT.
Info: FIRST LDB TIMESTEP     50
Info: LAST LDB TIMESTEP     -1
Info: HOM BACKGROUND SCALING 1
Info: PME BACKGROUND SCALING 1
Info: MIN ATOMS PER PATCH    40
Info: EMPTY PATCH LOAD       40 ATOMS
Info: INITIAL TEMPERATURE    300
Info: CENTER OF MASS MOVING INITIALLY? NO
Info: DIELECTRIC             1
Info: EXCLUDE                SCALED ONE-FOUR
Info: 1-4 ELECTROSTATICS SCALED BY 0.833333
Info: MODIFIED 1-4 VDW PARAMETERS WILL BE USED
Info: DCD FILENAME           mobley_3211679_equil.dcd
Info: DCD FREQUENCY          100000
Info: DCD FIRST STEP         100000
Info: DCD FILE WILL CONTAIN UNIT CELL DATA
Info: XST FILENAME           mobley_3211679_equil.xst
Info: XST FREQUENCY          100000
Info: NO VELOCITY DCD OUTPUT
Info: NO FORCE DCD OUTPUT
Info: OUTPUT FILENAME        mobley_3211679_equil
Info: BINARY OUTPUT FILES WILL BE USED
Info: RESTART FILENAME       mobley_3211679_equil.restart
Info: RESTART FREQUENCY      100000
Info: BINARY RESTART FILES WILL BE USED
Info: CUTOFF                 9
Info: PAIRLIST DISTANCE      11
Info: PAIRLIST SHRINK RATE   0.01
Info: PAIRLIST GROW RATE     0.01
Info: PAIRLIST TRIGGER       0.3
Info: PAIRLISTS PER CYCLE    2
Info: PAIRLISTS ENABLED
Info: MARGIN                 8
Info: HYDROGEN GROUP CUTOFF  2.5
Info: PATCH DIMENSION        21.5
Info: ENERGY OUTPUT STEPS    100000
Info: ENERGY EVALUATION STEPS    100000
Info: OUTPUT ENERGY PRECISION 4
Info: CROSSTERM ENERGY INCLUDED IN DIHEDRAL
Info: TIMING OUTPUT STEPS    1000000
Info: PRESSURE OUTPUT STEPS  100000
Info: FIXED ATOMS ACTIVE
Info: LANGEVIN DYNAMICS ACTIVE
Info: LANGEVIN TEMPERATURE   30
Info: LANGEVIN USING BBK INTEGRATOR
Info: LANGEVIN DAMPING COEFFICIENT IS 1 INVERSE PS
Info: LANGEVIN DYNAMICS APPLIED TO HYDROGENS
Info: LANGEVIN PISTON PRESSURE CONTROL ACTIVE
Info:        TARGET PRESSURE IS 1.01325 BAR
Info:     OSCILLATION PERIOD IS 50 FS
Info:             DECAY TIME IS 25 FS
Info:     PISTON TEMPERATURE IS 300 K
Info:       PRESSURE CONTROL IS GROUP-BASED
Info:    INITIAL STRAIN RATE IS 0 0 0
Info:       CELL FLUCTUATION IS ISOTROPIC
Info: PARTICLE MESH EWALD (PME) ACTIVE
Info: PME TOLERANCE               1e-06
Info: PME EWALD COEFFICIENT       0.348832
Info: PME INTERPOLATION ORDER     4
Info: PME GRID DIMENSIONS         40 36 36
Info: PME MAXIMUM GRID SPACING    1
Info: FULL ELECTROSTATIC EVALUATION FREQUENCY      2
Info: USING VERLET I (r-RESPA) MTS SCHEME.
Info: C1 SPLITTING OF LONG RANGE ELECTROSTATICS
Info: PLACING ATOMS IN PATCHES BY HYDROGEN GROUPS
Info: RIGID BONDS TO HYDROGEN : ALL
Info:         ERROR TOLERANCE : 1e-08
Info:          MAX ITERATIONS : 100
Info: RIGID WATER USING SETTLE ALGORITHM
Info: RANDOM NUMBER SEED     1743738449
Info: USE HYDROGEN BONDS?    NO
Info: Using AMBER format force field!
Info: AMBER PARM FILE        mobley_3211679.prmtop
Info: COORDINATE PDB         mobley_3211679.pdb
Info: Exclusions will be read from PARM file!
Info: SCNB (VDW SCALING)     2
Info: USING ARITHMETIC MEAN TO COMBINE L-J SIGMA PARAMETERS
Info: BINARY COORDINATES     mobley_3211679_min.coor
Info: SUMMARY OF PARAMETERS:
Info: 7 BONDS
Info: 8 ANGLES
Info:   8 HARMONIC
Info:   0 COSINE-BASED
Info: 12 DIHEDRAL
Info: 0 IMPROPER
Info: 0 CROSSTERM
Info: 0 VDW
Info: 21 VDW_PAIRS
Info: 0 NBTHOLE_PAIRS
Info: STRUCTURE SUMMARY:
Info: 2986 ATOMS
Info: 2986 BONDS
Info: 30 ANGLES
Info: 56 DIHEDRALS
Info: 0 IMPROPERS
Info: 0 CROSSTERMS
Info: 3056 EXCLUSIONS
Info: 16 FIXED ATOMS
Info: 2980 RIGID BONDS
Info: 10 RIGID BONDS BETWEEN FIXED ATOMS
Info: 5940 DEGREES OF FREEDOM
Info: 996 HYDROGEN GROUPS
Info: 3 ATOMS IN LARGEST HYDROGEN GROUP
Info: 996 MIGRATION GROUPS
Info: 3 ATOMS IN LARGEST MIGRATION GROUP
Info: 6 HYDROGEN GROUPS WITH ALL ATOMS FIXED
Info: TOTAL MASS = 17918 amu
Info: TOTAL CHARGE = -0.000200011 e
Info: MASS DENSITY = 0.655322 g/cm^3
Info: ATOM DENSITY = 0.0657652 atoms/A^3
Info: ADDED 0 IMPLICIT EXCLUSIONS
Info: NONBONDED TABLE R-SQUARED SPACING: 0.0625
Info: NONBONDED TABLE SIZE: 705 POINTS
Info: REMOVING COM VELOCITY -0.0764633 0.0522798 -0.0625372
TCL: Running for 100000 steps
ETITLE: TS BOND ANGLE DIHED IMPRP ELECT VDW BOUNDARY MISC KINETIC TOTAL TEMP POTENTIAL TOTAL3 TEMPAVG PRESSURE GPRESSURE VOLUME PRESSAVG GPRESSAVG
ENERGY: 0 0.0000 0.0000 0.0000 0.0000 -13806.1446 2452.7962 0.0000 0.0000 1773.8248 -9579.5235 300.5486 -11353.3484 -9579.1913 300.5486 630.0437 660.7608 45403.9288 630.0437 660.7608
ENERGY: 100000 0.0000 0.0000 0.0000 0.0000 -14459.1476 2582.0164 0.0000 0.0000 179.8010 -11697.3302 30.4646 -11877.1312 -11696.8908 30.8600 493.9468 564.2685 29723.5749 4.5636 4.5255
TCL: Running 100000 steps at 60 kelvin.
TCL: Setting parameter langevinTemp to 60
TCL: Running for 100000 steps
ETITLE: TS BOND ANGLE DIHED IMPRP ELECT VDW BOUNDARY MISC KINETIC TOTAL TEMP POTENTIAL TOTAL3 TEMPAVG PRESSURE GPRESSURE VOLUME PRESSAVG GPRESSAVG
ENERGY: 100000 0.0000 0.0000 0.0000 0.0000 -14459.1476 2582.0164 0.0000 0.0000 179.7132 -11697.4180 30.4498 -11877.1312 -11697.0236 30.4498 507.2970 564.2730 29723.5749 507.2970 564.2730
ENERGY: 200000 0.0000 0.0000 0.0000 0.0000 -14045.1074 2290.7555 0.0000 0.0000 358.5952 -11395.7567 60.7587 -11754.3519 -11395.0229 59.8461 -1335.2753 -1316.0855 30006.1382 3.2790 3.2008
TCL: Running 100000 steps at 90 kelvin.
TCL: Setting parameter langevinTemp to 90
TCL: Running for 100000 steps
ETITLE: TS BOND ANGLE DIHED IMPRP ELECT VDW BOUNDARY MISC KINETIC TOTAL TEMP POTENTIAL TOTAL3 TEMPAVG PRESSURE GPRESSURE VOLUME PRESSAVG GPRESSAVG
ENERGY: 200000 0.0000 0.0000 0.0000 0.0000 -14045.1074 2290.7555 0.0000 0.0000 358.4190 -11395.9329 60.7288 -11754.3519 -11395.0446 60.7288 -1367.1597 -1316.5721 30006.1382 -1367.1597 -1316.5721
ENERGY: 300000 0.0000 0.0000 0.0000 0.0000 -14131.6528 2414.1864 0.0000 0.0000 538.3034 -11179.1630 91.2076 -11717.4664 -11178.0002 90.0400 -201.3271 -132.1486 29553.9819 4.2336 4.3722
TCL: Running 100000 steps at 120 kelvin.
TCL: Setting parameter langevinTemp to 120
TCL: Running for 100000 steps
ETITLE: TS BOND ANGLE DIHED IMPRP ELECT VDW BOUNDARY MISC KINETIC TOTAL TEMP POTENTIAL TOTAL3 TEMPAVG PRESSURE GPRESSURE VOLUME PRESSAVG GPRESSAVG
ENERGY: 300000 0.0000 0.0000 0.0000 0.0000 -14131.6528 2414.1864 0.0000 0.0000 538.0392 -11179.4272 91.1628 -11717.4664 -11178.0665 91.1628 -202.2790 -132.2201 29553.9819 -202.2790 -132.2201
ENERGY: 400000 0.0000 0.0000 0.0000 0.0000 -13961.1812 2393.9009 0.0000 0.0000 694.4122 -10872.8681 117.6579 -11567.2802 -10870.9745 120.0125 241.2150 232.0833 29448.6058 3.8294 3.8910
TCL: Running 100000 steps at 150 kelvin.
TCL: Setting parameter langevinTemp to 150
TCL: Running for 100000 steps
ETITLE: TS BOND ANGLE DIHED IMPRP ELECT VDW BOUNDARY MISC KINETIC TOTAL TEMP POTENTIAL TOTAL3 TEMPAVG PRESSURE GPRESSURE VOLUME PRESSAVG GPRESSAVG
ENERGY: 400000 0.0000 0.0000 0.0000 0.0000 -13961.1812 2393.9009 0.0000 0.0000 694.0568 -10873.2235 117.5977 -11567.2802 -10871.7820 117.5977 182.0723 232.0773 29448.6058 182.0723 232.0773
ENERGY: 500000 0.0000 0.0000 0.0000 0.0000 -13712.1111 2346.3771 0.0000 0.0000 876.9554 -10488.7787 148.5872 -11365.7341 -10487.1190 149.7320 822.7991 906.8580 28866.6999 4.6139 4.5480
TCL: Running 100000 steps at 180 kelvin.
TCL: Setting parameter langevinTemp to 180
TCL: Running for 100000 steps
ETITLE: TS BOND ANGLE DIHED IMPRP ELECT VDW BOUNDARY MISC KINETIC TOTAL TEMP POTENTIAL TOTAL3 TEMPAVG PRESSURE GPRESSURE VOLUME PRESSAVG GPRESSAVG
ENERGY: 500000 0.0000 0.0000 0.0000 0.0000 -13712.1111 2346.3771 0.0000 0.0000 876.5136 -10489.2205 148.5124 -11365.7341 -10487.8044 148.5124 850.9522 907.3961 28866.6999 850.9522 907.3961
ENERGY: 600000 0.0000 0.0000 0.0000 0.0000 -13359.2836 2245.3232 0.0000 0.0000 1067.3903 -10046.5701 180.8536 -11113.9605 -10044.7712 179.7787 955.1974 1031.2151 28788.8869 5.1948 4.9818
TCL: Running 100000 steps at 210 kelvin.
TCL: Setting parameter langevinTemp to 210
TCL: Running for 100000 steps
ETITLE: TS BOND ANGLE DIHED IMPRP ELECT VDW BOUNDARY MISC KINETIC TOTAL TEMP POTENTIAL TOTAL3 TEMPAVG PRESSURE GPRESSURE VOLUME PRESSAVG GPRESSAVG
ENERGY: 600000 0.0000 0.0000 0.0000 0.0000 -13359.2836 2245.3232 0.0000 0.0000 1066.8491 -10047.1114 180.7619 -11113.9605 -10045.1229 180.7619 960.8760 1030.5533 28788.8869 960.8760 1030.5533
ENERGY: 700000 0.0000 0.0000 0.0000 0.0000 -12454.2257 1817.5071 0.0000 0.0000 1227.9215 -9408.7971 208.0533 -10636.7187 -9406.9988 209.1679 -721.9673 -646.1102 28973.4747 3.2335 3.3035
TCL: Running 100000 steps at 240 kelvin.
TCL: Setting parameter langevinTemp to 240
TCL: Running for 100000 steps
ETITLE: TS BOND ANGLE DIHED IMPRP ELECT VDW BOUNDARY MISC KINETIC TOTAL TEMP POTENTIAL TOTAL3 TEMPAVG PRESSURE GPRESSURE VOLUME PRESSAVG GPRESSAVG
ENERGY: 700000 0.0000 0.0000 0.0000 0.0000 -12454.2257 1817.5071 0.0000 0.0000 1227.3298 -9409.3888 207.9530 -10636.7187 -9407.0349 207.9530 -719.9702 -646.0208 28973.4747 -719.9702 -646.0208
ENERGY: 800000 0.0000 0.0000 0.0000 0.0000 -11864.2089 1683.2465 0.0000 0.0000 1441.1242 -8739.8382 244.1773 -10180.9623 -8735.7274 240.2131 -301.1737 -220.4409 29320.5250 3.1571 2.9680
TCL: Running 100000 steps at 270 kelvin.
TCL: Setting parameter langevinTemp to 270
TCL: Running for 100000 steps
ETITLE: TS BOND ANGLE DIHED IMPRP ELECT VDW BOUNDARY MISC KINETIC TOTAL TEMP POTENTIAL TOTAL3 TEMPAVG PRESSURE GPRESSURE VOLUME PRESSAVG GPRESSAVG
ENERGY: 800000 0.0000 0.0000 0.0000 0.0000 -11864.2089 1683.2465 0.0000 0.0000 1440.4245 -8740.5378 244.0588 -10180.9623 -8738.0046 244.0588 -303.7943 -218.4971 29320.5250 -303.7943 -218.4971
ENERGY: 900000 0.0000 0.0000 0.0000 0.0000 -11170.6741 1438.9383 0.0000 0.0000 1580.1124 -8151.6235 267.7268 -9731.7359 -8148.5330 270.1629 -1216.3639 -1089.5222 30052.0899 3.4729 3.4596
TCL: Running 1000000 steps at 300 kelvin.
TCL: Setting parameter langevinTemp to 300
TCL: Running for 1000000 steps
ETITLE: TS BOND ANGLE DIHED IMPRP ELECT VDW BOUNDARY MISC KINETIC TOTAL TEMP POTENTIAL TOTAL3 TEMPAVG PRESSURE GPRESSURE VOLUME PRESSAVG GPRESSAVG
ENERGY: 900000 0.0000 0.0000 0.0000 0.0000 -11170.6741 1438.9383 0.0000 0.0000 1579.2864 -8152.4494 267.5869 -9731.7359 -8149.2155 267.5869 -1174.0070 -1088.3139 30052.0899 -1174.0070 -1088.3139
ENERGY: 1100000 0.0000 0.0000 0.0000 0.0000 -10794.2962 1455.2061 0.0000 0.0000 1759.7756 -7579.3144 298.1681 -9339.0900 -7575.2912 300.0412 199.9781 218.4601 30678.4684 3.9190 3.8973
ENERGY: 1300000 0.0000 0.0000 0.0000 0.0000 -10720.4277 1412.7771 0.0000 0.0000 1814.2432 -7493.4074 307.3969 -9307.6506 -7489.6672 300.2640 -224.7698 -82.6367 30920.9506 3.2650 3.1111
ENERGY: 1500000 0.0000 0.0000 0.0000 0.0000 -10852.0659 1423.6849 0.0000 0.0000 1741.9884 -7686.3926 295.1543 -9428.3810 -7683.7206 300.0248 -487.2657 -411.2647 30847.4455 3.5879 3.6536
ENERGY: 1700000 0.0000 0.0000 0.0000 0.0000 -10833.2952 1498.7925 0.0000 0.0000 1771.9617 -7562.5411 300.2329 -9334.5028 -7560.5316 300.4065 447.1924 518.1916 30548.8464 1.9249 1.8872
ENERGY: 1900000 0.0000 0.0000 0.0000 0.0000 -10834.6461 1495.4633 0.0000 0.0000 1776.3980 -7562.7849 300.9846 -9339.1829 -7561.3700 299.8508 343.0316 397.3094 30743.4474 3.3613 3.2735
TCL: Exiting due to exit command.
