Info: SIMULATION PARAMETERS:
Info: TIMESTEP               2
Info: NUMBER OF STEPS        0
Info: STEPS PER CYCLE        10
Info: PERIODIC CELL BASIS 1  37.38 0 0
Info: PERIODIC CELL BASIS 2  0 34.26 0
Info: PERIODIC CELL BASIS 3  0 0 34.229
Info: PERIODIC CELL CENTER   0 0 0
Info: WRAPPING WATERS AROUND PERIODIC BOUNDARIES ON OUTPUT.
Info: WRAPPING ALL CLUSTERS AROUND PERIODIC BOUNDARIES ON OUTPUT.
Info: FIRST LDB TIMESTEP     50
Info: LAST LDB TIMESTEP     -1
Info: HOM BACKGROUND SCALING 1
Info: PME BACKGROUND SCALING 1
Info: MIN ATOMS PER PATCH    40
Info: EMPTY PATCH LOAD       40 ATOMS
Info: INITIAL TEMPERATURE    300
Info: CENTER OF MASS MOVING INITIALLY? NO
Info: DIELECTRIC             1
Info: EXCLUDE                SCALED ONE-FOUR
Info: 1-4 ELECTROSTATICS SCALED BY 0.833333
Info: MODIFIED 1-4 VDW PARAMETERS WILL BE USED
Info: DCD FILENAME           mobley_3105103_equil.dcd
Info: DCD FREQUENCY          100000
Info: DCD FIRST STEP         100000
Info: DCD FILE WILL CONTAIN UNIT CELL DATA
Info: XST FILENAME           mobley_3105103_equil.xst
Info: XST FREQUENCY          100000
Info: NO VELOCITY DCD OUTPUT
Info: NO FORCE DCD OUTPUT
Info: OUTPUT FILENAME        mobley_3105103_equil
Info: BINARY OUTPUT FILES WILL BE USED
Info: RESTART FILENAME       mobley_3105103_equil.restart
Info: RESTART FREQUENCY      100000
Info: BINARY RESTART FILES WILL BE USED
Info: CUTOFF                 9
Info: PAIRLIST DISTANCE      11
Info: PAIRLIST SHRINK RATE   0.01
Info: PAIRLIST GROW RATE     0.01
Info: PAIRLIST TRIGGER       0.3
Info: PAIRLISTS PER CYCLE    2
Info: PAIRLISTS ENABLED
Info: MARGIN                 8
Info: HYDROGEN GROUP CUTOFF  2.5
Info: PATCH DIMENSION        21.5
Info: ENERGY OUTPUT STEPS    100000
Info: ENERGY EVALUATION STEPS    100000
Info: OUTPUT ENERGY PRECISION 4
Info: CROSSTERM ENERGY INCLUDED IN DIHEDRAL
Info: TIMING OUTPUT STEPS    1000000
Info: PRESSURE OUTPUT STEPS  100000
Info: FIXED ATOMS ACTIVE
Info: LANGEVIN DYNAMICS ACTIVE
Info: LANGEVIN TEMPERATURE   30
Info: LANGEVIN USING BBK INTEGRATOR
Info: LANGEVIN DAMPING COEFFICIENT IS 1 INVERSE PS
Info: LANGEVIN DYNAMICS APPLIED TO HYDROGENS
Info: LANGEVIN PISTON PRESSURE CONTROL ACTIVE
Info:        TARGET PRESSURE IS 1.01325 BAR
Info:     OSCILLATION PERIOD IS 50 FS
Info:             DECAY TIME IS 25 FS
Info:     PISTON TEMPERATURE IS 300 K
Info:       PRESSURE CONTROL IS GROUP-BASED
Info:    INITIAL STRAIN RATE IS 0 0 0
Info:       CELL FLUCTUATION IS ISOTROPIC
Info: PARTICLE MESH EWALD (PME) ACTIVE
Info: PME TOLERANCE               1e-06
Info: PME EWALD COEFFICIENT       0.348832
Info: PME INTERPOLATION ORDER     4
Info: PME GRID DIMENSIONS         40 36 36
Info: PME MAXIMUM GRID SPACING    1
Info: FULL ELECTROSTATIC EVALUATION FREQUENCY      2
Info: USING VERLET I (r-RESPA) MTS SCHEME.
Info: C1 SPLITTING OF LONG RANGE ELECTROSTATICS
Info: PLACING ATOMS IN PATCHES BY HYDROGEN GROUPS
Info: RIGID BONDS TO HYDROGEN : ALL
Info:         ERROR TOLERANCE : 1e-08
Info:          MAX ITERATIONS : 100
Info: RIGID WATER USING SETTLE ALGORITHM
Info: RANDOM NUMBER SEED     1743765416
Info: USE HYDROGEN BONDS?    NO
Info: Using AMBER format force field!
Info: AMBER PARM FILE        mobley_3105103.prmtop
Info: COORDINATE PDB         mobley_3105103.pdb
Info: Exclusions will be read from PARM file!
Info: SCNB (VDW SCALING)     2
Info: USING ARITHMETIC MEAN TO COMBINE L-J SIGMA PARAMETERS
Info: BINARY COORDINATES     mobley_3105103_min.coor
Info: SUMMARY OF PARAMETERS:
Info: 13 BONDS
Info: 20 ANGLES
Info:   20 HARMONIC
Info:   0 COSINE-BASED
Info: 14 DIHEDRAL
Info: 0 IMPROPER
Info: 0 CROSSTERM
Info: 0 VDW
Info: 45 VDW_PAIRS
Info: 0 NBTHOLE_PAIRS
Info: STRUCTURE SUMMARY:
Info: 2958 ATOMS
Info: 2958 BONDS
Info: 48 ANGLES
Info: 88 DIHEDRALS
Info: 0 IMPROPERS
Info: 0 CROSSTERMS
Info: 3066 EXCLUSIONS
Info: 27 FIXED ATOMS
Info: 2944 RIGID BONDS
Info: 13 RIGID BONDS BETWEEN FIXED ATOMS
Info: 5862 DEGREES OF FREEDOM
Info: 991 HYDROGEN GROUPS
Info: 4 ATOMS IN LARGEST HYDROGEN GROUP
Info: 991 MIGRATION GROUPS
Info: 4 ATOMS IN LARGEST MIGRATION GROUP
Info: 14 HYDROGEN GROUPS WITH ALL ATOMS FIXED
Info: TOTAL MASS = 17818.3 amu
Info: TOTAL CHARGE = 2.6077e-08 e
Info: MASS DENSITY = 0.675001 g/cm^3
Info: ATOM DENSITY = 0.0674803 atoms/A^3
Info: ADDED 0 IMPLICIT EXCLUSIONS
Info: NONBONDED TABLE R-SQUARED SPACING: 0.0625
Info: NONBONDED TABLE SIZE: 705 POINTS
Info: REMOVING COM VELOCITY 0.0465219 -0.259964 -0.151763
TCL: Running for 100000 steps
ETITLE: TS BOND ANGLE DIHED IMPRP ELECT VDW BOUNDARY MISC KINETIC TOTAL TEMP POTENTIAL TOTAL3 TEMPAVG PRESSURE GPRESSURE VOLUME PRESSAVG GPRESSAVG
ENERGY: 0 0.0000 0.0000 0.0000 0.0000 -13704.2605 2312.1167 0.0000 0.0000 1820.6673 -9571.4765 312.5901 -11392.1438 -9571.0879 312.5901 -19.5717 19.2598 43834.9855 -19.5717 19.2598
ENERGY: 100000 0.0000 0.0000 0.0000 0.0000 -14287.9433 2366.6511 0.0000 0.0000 174.3189 -11746.9733 29.9288 -11921.2922 -11746.4459 30.9301 -941.1800 -897.0839 29317.0157 5.5360 5.5565
TCL: Running 100000 steps at 60 kelvin.
TCL: Setting parameter langevinTemp to 60
TCL: Running for 100000 steps
ETITLE: TS BOND ANGLE DIHED IMPRP ELECT VDW BOUNDARY MISC KINETIC TOTAL TEMP POTENTIAL TOTAL3 TEMPAVG PRESSURE GPRESSURE VOLUME PRESSAVG GPRESSAVG
ENERGY: 100000 0.0000 0.0000 0.0000 0.0000 -14287.9433 2366.6511 0.0000 0.0000 174.2323 -11747.0600 29.9139 -11921.2922 -11746.5874 29.9139 -943.8014 -896.9306 29317.0157 -943.8014 -896.9306
ENERGY: 200000 0.0000 0.0000 0.0000 0.0000 -14184.9333 2365.6554 0.0000 0.0000 353.3072 -11465.9707 60.6593 -11819.2779 -11465.1966 59.9160 -445.8606 -414.3910 29300.1641 4.7753 4.7707
TCL: Running 100000 steps at 90 kelvin.
TCL: Setting parameter langevinTemp to 90
TCL: Running for 100000 steps
ETITLE: TS BOND ANGLE DIHED IMPRP ELECT VDW BOUNDARY MISC KINETIC TOTAL TEMP POTENTIAL TOTAL3 TEMPAVG PRESSURE GPRESSURE VOLUME PRESSAVG GPRESSAVG
ENERGY: 200000 0.0000 0.0000 0.0000 0.0000 -14184.9333 2365.6554 0.0000 0.0000 353.1346 -11466.1433 60.6296 -11819.2779 -11465.4444 60.6296 -460.6678 -414.6319 29300.1641 -460.6678 -414.6319
ENERGY: 300000 0.0000 0.0000 0.0000 0.0000 -14031.8904 2331.2100 0.0000 0.0000 507.8173 -11192.8631 87.1871 -11700.6804 -11191.8642 89.9521 -251.3912 -217.5488 29122.8422 2.4001 2.4610
TCL: Running 100000 steps at 120 kelvin.
TCL: Setting parameter langevinTemp to 120
TCL: Running for 100000 steps
ETITLE: TS BOND ANGLE DIHED IMPRP ELECT VDW BOUNDARY MISC KINETIC TOTAL TEMP POTENTIAL TOTAL3 TEMPAVG PRESSURE GPRESSURE VOLUME PRESSAVG GPRESSAVG
ENERGY: 300000 0.0000 0.0000 0.0000 0.0000 -14031.8904 2331.2100 0.0000 0.0000 507.5696 -11193.1108 87.1445 -11700.6804 -11191.9678 87.1445 -277.9954 -217.4712 29122.8422 -277.9954 -217.4712
ENERGY: 400000 0.0000 0.0000 0.0000 0.0000 -13809.2750 2187.4146 0.0000 0.0000 691.3228 -10930.5375 118.6931 -11621.8604 -10928.6815 120.0311 -1165.3400 -1126.7848 29215.8769 5.7235 5.6639
TCL: Running 100000 steps at 150 kelvin.
TCL: Setting parameter langevinTemp to 150
TCL: Running for 100000 steps
ETITLE: TS BOND ANGLE DIHED IMPRP ELECT VDW BOUNDARY MISC KINETIC TOTAL TEMP POTENTIAL TOTAL3 TEMPAVG PRESSURE GPRESSURE VOLUME PRESSAVG GPRESSAVG
ENERGY: 400000 0.0000 0.0000 0.0000 0.0000 -13809.2750 2187.4146 0.0000 0.0000 690.9620 -10930.8984 118.6312 -11621.8604 -10929.4005 118.6312 -1183.2399 -1127.1433 29215.8769 -1183.2399 -1127.1433
ENERGY: 500000 0.0000 0.0000 0.0000 0.0000 -13611.9067 2213.7976 0.0000 0.0000 876.2007 -10521.9085 150.4347 -11398.1092 -10519.7763 149.6998 -185.0699 -102.8074 29053.6381 3.1797 3.2056
TCL: Running 100000 steps at 180 kelvin.
TCL: Setting parameter langevinTemp to 180
TCL: Running for 100000 steps
ETITLE: TS BOND ANGLE DIHED IMPRP ELECT VDW BOUNDARY MISC KINETIC TOTAL TEMP POTENTIAL TOTAL3 TEMPAVG PRESSURE GPRESSURE VOLUME PRESSAVG GPRESSAVG
ENERGY: 500000 0.0000 0.0000 0.0000 0.0000 -13611.9067 2213.7976 0.0000 0.0000 875.7713 -10522.3379 150.3610 -11398.1092 -10520.6274 150.3610 -155.5726 -102.8486 29053.6381 -155.5726 -102.8486
ENERGY: 600000 0.0000 0.0000 0.0000 0.0000 -13396.2203 2184.9748 0.0000 0.0000 1052.5978 -10158.6476 180.7203 -11211.2454 -10155.8913 180.1237 658.4522 793.7753 28411.8233 4.8710 4.8948
TCL: Running 100000 steps at 210 kelvin.
TCL: Setting parameter langevinTemp to 210
TCL: Running for 100000 steps
ETITLE: TS BOND ANGLE DIHED IMPRP ELECT VDW BOUNDARY MISC KINETIC TOTAL TEMP POTENTIAL TOTAL3 TEMPAVG PRESSURE GPRESSURE VOLUME PRESSAVG GPRESSAVG
ENERGY: 600000 0.0000 0.0000 0.0000 0.0000 -13396.2203 2184.9748 0.0000 0.0000 1052.0788 -10159.1666 180.6312 -11211.2454 -10156.7290 180.6312 733.3071 793.5792 28411.8233 733.3071 793.5792
ENERGY: 700000 0.0000 0.0000 0.0000 0.0000 -12778.2623 2014.9783 0.0000 0.0000 1224.7795 -9538.5045 210.2822 -10763.2840 -9534.6692 209.5691 1048.1826 1066.1347 28482.1786 3.5616 3.4993
TCL: Running 100000 steps at 240 kelvin.
TCL: Setting parameter langevinTemp to 240
TCL: Running for 100000 steps
ETITLE: TS BOND ANGLE DIHED IMPRP ELECT VDW BOUNDARY MISC KINETIC TOTAL TEMP POTENTIAL TOTAL3 TEMPAVG PRESSURE GPRESSURE VOLUME PRESSAVG GPRESSAVG
ENERGY: 700000 0.0000 0.0000 0.0000 0.0000 -12778.2623 2014.9783 0.0000 0.0000 1224.1266 -9539.1574 210.1701 -10763.2840 -9537.0471 210.1701 998.2977 1067.6002 28482.1786 998.2977 1067.6002
ENERGY: 800000 0.0000 0.0000 0.0000 0.0000 -11943.2212 1686.9857 0.0000 0.0000 1418.4741 -8837.7614 243.5376 -10256.2355 -8834.4838 239.9729 40.0998 92.1592 28816.6505 3.3897 3.4370
TCL: Running 100000 steps at 270 kelvin.
TCL: Setting parameter langevinTemp to 270
TCL: Running for 100000 steps
ETITLE: TS BOND ANGLE DIHED IMPRP ELECT VDW BOUNDARY MISC KINETIC TOTAL TEMP POTENTIAL TOTAL3 TEMPAVG PRESSURE GPRESSURE VOLUME PRESSAVG GPRESSAVG
ENERGY: 800000 0.0000 0.0000 0.0000 0.0000 -11943.2212 1686.9857 0.0000 0.0000 1417.7772 -8838.4583 243.4179 -10256.2355 -8836.3277 243.4179 13.0386 92.4467 28816.6505 13.0386 92.4467
ENERGY: 900000 0.0000 0.0000 0.0000 0.0000 -11252.5603 1396.5341 0.0000 0.0000 1555.6255 -8300.4007 267.0851 -9856.0262 -8296.7079 270.2863 -1401.7899 -1354.2336 29827.7724 4.3445 4.2297
TCL: Running 1000000 steps at 300 kelvin.
TCL: Setting parameter langevinTemp to 300
TCL: Running for 1000000 steps
ETITLE: TS BOND ANGLE DIHED IMPRP ELECT VDW BOUNDARY MISC KINETIC TOTAL TEMP POTENTIAL TOTAL3 TEMPAVG PRESSURE GPRESSURE VOLUME PRESSAVG GPRESSAVG
ENERGY: 900000 0.0000 0.0000 0.0000 0.0000 -11252.5603 1396.5341 0.0000 0.0000 1554.8560 -8301.1702 266.9530 -9856.0262 -8298.7463 266.9530 -1427.5741 -1353.3007 29827.7724 -1427.5741 -1353.3007
ENERGY: 1100000 0.0000 0.0000 0.0000 0.0000 -10669.2323 1314.3316 0.0000 0.0000 1677.9037 -7676.9970 288.0790 -9354.9007 -7673.6455 300.3356 -925.7833 -858.1252 31055.0403 3.4150 3.4545
ENERGY: 1300000 0.0000 0.0000 0.0000 0.0000 -10798.3796 1394.0281 0.0000 0.0000 1708.7019 -7695.6496 293.3667 -9404.3515 -7690.9636 300.1863 -402.8335 -316.1187 30652.2596 2.9998 3.0983
ENERGY: 1500000 0.0000 0.0000 0.0000 0.0000 -10834.4187 1378.1041 0.0000 0.0000 1804.9256 -7651.3890 309.8874 -9456.3147 -7647.8682 300.2071 -416.5848 -368.8381 30504.3549 3.6406 3.6996
ENERGY: 1700000 0.0000 0.0000 0.0000 0.0000 -10894.3647 1483.4601 0.0000 0.0000 1730.1277 -7680.7769 297.0453 -9410.9046 -7674.9577 300.6054 218.7198 366.5686 30572.0164 3.1428 3.0693
ENERGY: 1900000 0.0000 0.0000 0.0000 0.0000 -10880.8682 1424.3095 0.0000 0.0000 1711.1040 -7745.4546 293.7792 -9456.5586 -7743.2700 300.1923 -70.1983 -19.4656 30298.8748 3.5794 3.5202
TCL: Exiting due to exit command.
