Info: SIMULATION PARAMETERS:
Info: TIMESTEP               2
Info: NUMBER OF STEPS        0
Info: STEPS PER CYCLE        10
Info: PERIODIC CELL BASIS 1  35.89 0 0
Info: PERIODIC CELL BASIS 2  0 35.411 0
Info: PERIODIC CELL BASIS 3  0 0 34.954
Info: PERIODIC CELL CENTER   0 0 0
Info: WRAPPING WATERS AROUND PERIODIC BOUNDARIES ON OUTPUT.
Info: WRAPPING ALL CLUSTERS AROUND PERIODIC BOUNDARIES ON OUTPUT.
Info: FIRST LDB TIMESTEP     50
Info: LAST LDB TIMESTEP     -1
Info: HOM BACKGROUND SCALING 1
Info: PME BACKGROUND SCALING 1
Info: MIN ATOMS PER PATCH    40
Info: EMPTY PATCH LOAD       40 ATOMS
Info: INITIAL TEMPERATURE    300
Info: CENTER OF MASS MOVING INITIALLY? NO
Info: DIELECTRIC             1
Info: EXCLUDE                SCALED ONE-FOUR
Info: 1-4 ELECTROSTATICS SCALED BY 0.833333
Info: MODIFIED 1-4 VDW PARAMETERS WILL BE USED
Info: DCD FILENAME           mobley_2008055_equil.dcd
Info: DCD FREQUENCY          100000
Info: DCD FIRST STEP         100000
Info: DCD FILE WILL CONTAIN UNIT CELL DATA
Info: XST FILENAME           mobley_2008055_equil.xst
Info: XST FREQUENCY          100000
Info: NO VELOCITY DCD OUTPUT
Info: NO FORCE DCD OUTPUT
Info: OUTPUT FILENAME        mobley_2008055_equil
Info: BINARY OUTPUT FILES WILL BE USED
Info: RESTART FILENAME       mobley_2008055_equil.restart
Info: RESTART FREQUENCY      100000
Info: BINARY RESTART FILES WILL BE USED
Info: CUTOFF                 9
Info: PAIRLIST DISTANCE      11
Info: PAIRLIST SHRINK RATE   0.01
Info: PAIRLIST GROW RATE     0.01
Info: PAIRLIST TRIGGER       0.3
Info: PAIRLISTS PER CYCLE    2
Info: PAIRLISTS ENABLED
Info: MARGIN                 8
Info: HYDROGEN GROUP CUTOFF  2.5
Info: PATCH DIMENSION        21.5
Info: ENERGY OUTPUT STEPS    100000
Info: ENERGY EVALUATION STEPS    100000
Info: OUTPUT ENERGY PRECISION 4
Info: CROSSTERM ENERGY INCLUDED IN DIHEDRAL
Info: TIMING OUTPUT STEPS    1000000
Info: PRESSURE OUTPUT STEPS  100000
Info: FIXED ATOMS ACTIVE
Info: LANGEVIN DYNAMICS ACTIVE
Info: LANGEVIN TEMPERATURE   30
Info: LANGEVIN USING BBK INTEGRATOR
Info: LANGEVIN DAMPING COEFFICIENT IS 1 INVERSE PS
Info: LANGEVIN DYNAMICS APPLIED TO HYDROGENS
Info: LANGEVIN PISTON PRESSURE CONTROL ACTIVE
Info:        TARGET PRESSURE IS 1.01325 BAR
Info:     OSCILLATION PERIOD IS 50 FS
Info:             DECAY TIME IS 25 FS
Info:     PISTON TEMPERATURE IS 300 K
Info:       PRESSURE CONTROL IS GROUP-BASED
Info:    INITIAL STRAIN RATE IS 0 0 0
Info:       CELL FLUCTUATION IS ISOTROPIC
Info: PARTICLE MESH EWALD (PME) ACTIVE
Info: PME TOLERANCE               1e-06
Info: PME EWALD COEFFICIENT       0.348832
Info: PME INTERPOLATION ORDER     4
Info: PME GRID DIMENSIONS         36 36 36
Info: PME MAXIMUM GRID SPACING    1
Info: FULL ELECTROSTATIC EVALUATION FREQUENCY      2
Info: USING VERLET I (r-RESPA) MTS SCHEME.
Info: C1 SPLITTING OF LONG RANGE ELECTROSTATICS
Info: PLACING ATOMS IN PATCHES BY HYDROGEN GROUPS
Info: RIGID BONDS TO HYDROGEN : ALL
Info:         ERROR TOLERANCE : 1e-08
Info:          MAX ITERATIONS : 100
Info: RIGID WATER USING SETTLE ALGORITHM
Info: RANDOM NUMBER SEED     1743673499
Info: USE HYDROGEN BONDS?    NO
Info: Using AMBER format force field!
Info: AMBER PARM FILE        mobley_2008055.prmtop
Info: COORDINATE PDB         mobley_2008055.pdb
Info: Exclusions will be read from PARM file!
Info: SCNB (VDW SCALING)     2
Info: USING ARITHMETIC MEAN TO COMBINE L-J SIGMA PARAMETERS
Info: BINARY COORDINATES     mobley_2008055_min.coor
Info: SUMMARY OF PARAMETERS:
Info: 4 BONDS
Info: 2 ANGLES
Info:   2 HARMONIC
Info:   0 COSINE-BASED
Info: 1 DIHEDRAL
Info: 0 IMPROPER
Info: 0 CROSSTERM
Info: 0 VDW
Info: 10 VDW_PAIRS
Info: 0 NBTHOLE_PAIRS
Info: STRUCTURE SUMMARY:
Info: 2942 ATOMS
Info: 2941 BONDS
Info: 12 ANGLES
Info: 9 DIHEDRALS
Info: 0 IMPROPERS
Info: 0 CROSSTERMS
Info: 2962 EXCLUSIONS
Info: 8 FIXED ATOMS
Info: 2940 RIGID BONDS
Info: 6 RIGID BONDS BETWEEN FIXED ATOMS
Info: 5868 DEGREES OF FREEDOM
Info: 980 HYDROGEN GROUPS
Info: 4 ATOMS IN LARGEST HYDROGEN GROUP
Info: 980 MIGRATION GROUPS
Info: 4 ATOMS IN LARGEST MIGRATION GROUP
Info: 2 HYDROGEN GROUPS WITH ALL ATOMS FIXED
Info: TOTAL MASS = 17649.7 amu
Info: TOTAL CHARGE = 0.000200003 e
Info: MASS DENSITY = 0.659764 g/cm^3
Info: ATOM DENSITY = 0.0662269 atoms/A^3
Info: ADDED 0 IMPLICIT EXCLUSIONS
Info: NONBONDED TABLE R-SQUARED SPACING: 0.0625
Info: NONBONDED TABLE SIZE: 705 POINTS
Info: REMOVING COM VELOCITY -0.055987 -0.128983 -0.127865
TCL: Running for 100000 steps
ETITLE: TS BOND ANGLE DIHED IMPRP ELECT VDW BOUNDARY MISC KINETIC TOTAL TEMP POTENTIAL TOTAL3 TEMPAVG PRESSURE GPRESSURE VOLUME PRESSAVG GPRESSAVG
ENERGY: 0 0.0000 0.0000 0.0000 0.0000 -13663.2636 2421.1298 0.0000 0.0000 1749.2605 -9492.8733 300.0231 -11242.1338 -9492.5351 300.0231 523.4827 561.6047 44423.0662 523.4827 561.6047
ENERGY: 100000 0.0000 0.0000 0.0000 0.0000 -14180.3349 2428.8415 0.0000 0.0000 178.0240 -11573.4694 30.5337 -11751.4934 -11573.0757 30.8758 -338.3913 -292.6417 28488.2206 4.7974 4.7728
TCL: Running 100000 steps at 60 kelvin.
TCL: Setting parameter langevinTemp to 60
TCL: Running for 100000 steps
ETITLE: TS BOND ANGLE DIHED IMPRP ELECT VDW BOUNDARY MISC KINETIC TOTAL TEMP POTENTIAL TOTAL3 TEMPAVG PRESSURE GPRESSURE VOLUME PRESSAVG GPRESSAVG
ENERGY: 100000 0.0000 0.0000 0.0000 0.0000 -14180.3349 2428.8415 0.0000 0.0000 177.9343 -11573.5591 30.5183 -11751.4934 -11573.1529 30.5183 -346.4708 -292.6914 28488.2206 -346.4708 -292.6914
ENERGY: 200000 0.0000 0.0000 0.0000 0.0000 -14057.6282 2399.6693 0.0000 0.0000 347.6684 -11310.2905 59.6301 -11657.9589 -11309.5698 59.9051 -190.4297 -165.0052 28649.4592 5.2012 5.2134
TCL: Running 100000 steps at 90 kelvin.
TCL: Setting parameter langevinTemp to 90
TCL: Running for 100000 steps
ETITLE: TS BOND ANGLE DIHED IMPRP ELECT VDW BOUNDARY MISC KINETIC TOTAL TEMP POTENTIAL TOTAL3 TEMPAVG PRESSURE GPRESSURE VOLUME PRESSAVG GPRESSAVG
ENERGY: 200000 0.0000 0.0000 0.0000 0.0000 -14057.6282 2399.6693 0.0000 0.0000 347.4915 -11310.4674 59.5998 -11657.9589 -11309.7758 59.5998 -218.1878 -164.9714 28649.4592 -218.1878 -164.9714
ENERGY: 300000 0.0000 0.0000 0.0000 0.0000 -14011.1697 2464.3187 0.0000 0.0000 531.6962 -11015.1549 91.1935 -11546.8511 -11014.1070 89.7230 845.8844 899.8433 28530.2772 3.0679 3.0568
TCL: Running 100000 steps at 120 kelvin.
TCL: Setting parameter langevinTemp to 120
TCL: Running for 100000 steps
ETITLE: TS BOND ANGLE DIHED IMPRP ELECT VDW BOUNDARY MISC KINETIC TOTAL TEMP POTENTIAL TOTAL3 TEMPAVG PRESSURE GPRESSURE VOLUME PRESSAVG GPRESSAVG
ENERGY: 300000 0.0000 0.0000 0.0000 0.0000 -14011.1697 2464.3187 0.0000 0.0000 531.4423 -11015.4087 91.1500 -11546.8511 -11014.5770 91.1500 837.5922 899.4666 28530.2772 837.5922 899.4666
ENERGY: 400000 0.0000 0.0000 0.0000 0.0000 -13674.8866 2252.0919 0.0000 0.0000 716.8893 -10705.9053 122.9568 -11422.7947 -10704.5694 119.9283 -556.1142 -507.1355 28736.7533 5.4385 5.4589
TCL: Running 100000 steps at 150 kelvin.
TCL: Setting parameter langevinTemp to 150
TCL: Running for 100000 steps
ETITLE: TS BOND ANGLE DIHED IMPRP ELECT VDW BOUNDARY MISC KINETIC TOTAL TEMP POTENTIAL TOTAL3 TEMPAVG PRESSURE GPRESSURE VOLUME PRESSAVG GPRESSAVG
ENERGY: 400000 0.0000 0.0000 0.0000 0.0000 -13674.8866 2252.0919 0.0000 0.0000 716.5389 -10706.2557 122.8967 -11422.7947 -10704.9169 122.8967 -570.0139 -508.3868 28736.7533 -570.0139 -508.3868
ENERGY: 500000 0.0000 0.0000 0.0000 0.0000 -13676.7934 2392.9923 0.0000 0.0000 875.4101 -10408.3910 150.1453 -11283.8011 -10407.2023 149.9923 1141.1138 1192.0951 28538.0963 4.5571 4.4520
TCL: Running 100000 steps at 180 kelvin.
TCL: Setting parameter langevinTemp to 180
TCL: Running for 100000 steps
ETITLE: TS BOND ANGLE DIHED IMPRP ELECT VDW BOUNDARY MISC KINETIC TOTAL TEMP POTENTIAL TOTAL3 TEMPAVG PRESSURE GPRESSURE VOLUME PRESSAVG GPRESSAVG
ENERGY: 500000 0.0000 0.0000 0.0000 0.0000 -13676.7934 2392.9923 0.0000 0.0000 874.9645 -10408.8366 150.0689 -11283.8011 -10407.0871 150.0689 1147.5083 1191.2979 28538.0963 1147.5083 1191.2979
ENERGY: 600000 0.0000 0.0000 0.0000 0.0000 -13224.7015 2233.7207 0.0000 0.0000 1038.5786 -9952.4022 178.1311 -10990.9808 -9949.2199 179.7714 1007.4334 1085.6088 28502.9873 4.0247 4.0484
TCL: Running 100000 steps at 210 kelvin.
TCL: Setting parameter langevinTemp to 210
TCL: Running for 100000 steps
ETITLE: TS BOND ANGLE DIHED IMPRP ELECT VDW BOUNDARY MISC KINETIC TOTAL TEMP POTENTIAL TOTAL3 TEMPAVG PRESSURE GPRESSURE VOLUME PRESSAVG GPRESSAVG
ENERGY: 600000 0.0000 0.0000 0.0000 0.0000 -13224.7015 2233.7207 0.0000 0.0000 1038.0374 -9952.9434 178.0382 -10990.9808 -9950.8512 178.0382 1030.1874 1086.9140 28502.9873 1030.1874 1086.9140
ENERGY: 700000 0.0000 0.0000 0.0000 0.0000 -12364.9845 1863.5579 0.0000 0.0000 1208.9488 -9292.4778 207.3520 -10501.4266 -9291.1701 210.0429 -429.7739 -356.1313 28907.7186 2.3623 2.4553
TCL: Running 100000 steps at 240 kelvin.
TCL: Setting parameter langevinTemp to 240
TCL: Running for 100000 steps
ETITLE: TS BOND ANGLE DIHED IMPRP ELECT VDW BOUNDARY MISC KINETIC TOTAL TEMP POTENTIAL TOTAL3 TEMPAVG PRESSURE GPRESSURE VOLUME PRESSAVG GPRESSAVG
ENERGY: 700000 0.0000 0.0000 0.0000 0.0000 -12364.9845 1863.5579 0.0000 0.0000 1208.3009 -9293.1258 207.2409 -10501.4266 -9291.2877 207.2409 -436.6578 -356.2078 28907.7186 -436.6578 -356.2078
ENERGY: 800000 0.0000 0.0000 0.0000 0.0000 -11722.6676 1715.1517 0.0000 0.0000 1423.1072 -8584.4087 244.0832 -10007.5159 -8581.5792 239.9335 -49.0127 7.7102 29447.6369 3.2479 3.1588
TCL: Running 100000 steps at 270 kelvin.
TCL: Setting parameter langevinTemp to 270
TCL: Running for 100000 steps
ETITLE: TS BOND ANGLE DIHED IMPRP ELECT VDW BOUNDARY MISC KINETIC TOTAL TEMP POTENTIAL TOTAL3 TEMPAVG PRESSURE GPRESSURE VOLUME PRESSAVG GPRESSAVG
ENERGY: 800000 0.0000 0.0000 0.0000 0.0000 -11722.6676 1715.1517 0.0000 0.0000 1422.4292 -8585.0866 243.9669 -10007.5159 -8582.5912 243.9669 -73.6968 6.5537 29447.6369 -73.6968 6.5537
ENERGY: 900000 0.0000 0.0000 0.0000 0.0000 -11104.4388 1501.6542 0.0000 0.0000 1561.2097 -8041.5749 267.7697 -9602.7846 -8039.5607 269.7915 -506.7847 -421.2903 29710.3438 3.2724 3.1296
TCL: Running 1000000 steps at 300 kelvin.
TCL: Setting parameter langevinTemp to 300
TCL: Running for 1000000 steps
ETITLE: TS BOND ANGLE DIHED IMPRP ELECT VDW BOUNDARY MISC KINETIC TOTAL TEMP POTENTIAL TOTAL3 TEMPAVG PRESSURE GPRESSURE VOLUME PRESSAVG GPRESSAVG
ENERGY: 900000 0.0000 0.0000 0.0000 0.0000 -11104.4388 1501.6542 0.0000 0.0000 1560.4351 -8042.3495 267.6369 -9602.7846 -8039.8716 267.6369 -500.5971 -424.4077 29710.3438 -500.5971 -424.4077
ENERGY: 1100000 0.0000 0.0000 0.0000 0.0000 -10728.6308 1467.1991 0.0000 0.0000 1809.4874 -7451.9442 310.3529 -9261.4316 -7445.2197 300.2832 55.3816 146.5570 30757.6529 2.9604 2.9118
ENERGY: 1300000 0.0000 0.0000 0.0000 0.0000 -10599.1962 1369.6527 0.0000 0.0000 1746.5875 -7482.9560 299.5647 -9229.5435 -7478.1759 300.2234 -682.0840 -604.4899 30618.9910 3.1907 2.8951
ENERGY: 1500000 0.0000 0.0000 0.0000 0.0000 -10657.0510 1431.7001 0.0000 0.0000 1735.9831 -7489.3678 297.7459 -9225.3509 -7483.3690 300.2419 -151.7685 -160.8443 30752.6269 1.8491 1.9121
ENERGY: 1700000 0.0000 0.0000 0.0000 0.0000 -10685.0993 1434.6486 0.0000 0.0000 1776.8367 -7473.6139 304.7529 -9250.4506 -7468.8854 299.9689 -313.7113 -207.0577 30713.6655 1.8016 1.8501
ENERGY: 1900000 0.0000 0.0000 0.0000 0.0000 -10783.0800 1466.3865 0.0000 0.0000 1712.2548 -7604.4387 293.6762 -9316.6935 -7602.0924 300.3160 259.3018 422.8146 29536.0246 3.8798 3.8609
TCL: Exiting due to exit command.
