Info: SIMULATION PARAMETERS:
Info: TIMESTEP               2
Info: NUMBER OF STEPS        0
Info: STEPS PER CYCLE        10
Info: PERIODIC CELL BASIS 1  36.592 0 0
Info: PERIODIC CELL BASIS 2  0 34.696 0
Info: PERIODIC CELL BASIS 3  0 0 34.229
Info: PERIODIC CELL CENTER   0 0 0
Info: WRAPPING WATERS AROUND PERIODIC BOUNDARIES ON OUTPUT.
Info: WRAPPING ALL CLUSTERS AROUND PERIODIC BOUNDARIES ON OUTPUT.
Info: FIRST LDB TIMESTEP     50
Info: LAST LDB TIMESTEP     -1
Info: HOM BACKGROUND SCALING 1
Info: PME BACKGROUND SCALING 1
Info: MIN ATOMS PER PATCH    40
Info: EMPTY PATCH LOAD       40 ATOMS
Info: INITIAL TEMPERATURE    300
Info: CENTER OF MASS MOVING INITIALLY? NO
Info: DIELECTRIC             1
Info: EXCLUDE                SCALED ONE-FOUR
Info: 1-4 ELECTROSTATICS SCALED BY 0.833333
Info: MODIFIED 1-4 VDW PARAMETERS WILL BE USED
Info: DCD FILENAME           mobley_8320545_equil.dcd
Info: DCD FREQUENCY          100000
Info: DCD FIRST STEP         100000
Info: DCD FILE WILL CONTAIN UNIT CELL DATA
Info: XST FILENAME           mobley_8320545_equil.xst
Info: XST FREQUENCY          100000
Info: NO VELOCITY DCD OUTPUT
Info: NO FORCE DCD OUTPUT
Info: OUTPUT FILENAME        mobley_8320545_equil
Info: BINARY OUTPUT FILES WILL BE USED
Info: RESTART FILENAME       mobley_8320545_equil.restart
Info: RESTART FREQUENCY      100000
Info: BINARY RESTART FILES WILL BE USED
Info: CUTOFF                 9
Info: PAIRLIST DISTANCE      11
Info: PAIRLIST SHRINK RATE   0.01
Info: PAIRLIST GROW RATE     0.01
Info: PAIRLIST TRIGGER       0.3
Info: PAIRLISTS PER CYCLE    2
Info: PAIRLISTS ENABLED
Info: MARGIN                 8
Info: HYDROGEN GROUP CUTOFF  2.5
Info: PATCH DIMENSION        21.5
Info: ENERGY OUTPUT STEPS    100000
Info: ENERGY EVALUATION STEPS    100000
Info: OUTPUT ENERGY PRECISION 4
Info: CROSSTERM ENERGY INCLUDED IN DIHEDRAL
Info: TIMING OUTPUT STEPS    1000000
Info: PRESSURE OUTPUT STEPS  100000
Info: FIXED ATOMS ACTIVE
Info: LANGEVIN DYNAMICS ACTIVE
Info: LANGEVIN TEMPERATURE   30
Info: LANGEVIN USING BBK INTEGRATOR
Info: LANGEVIN DAMPING COEFFICIENT IS 1 INVERSE PS
Info: LANGEVIN DYNAMICS APPLIED TO HYDROGENS
Info: LANGEVIN PISTON PRESSURE CONTROL ACTIVE
Info:        TARGET PRESSURE IS 1.01325 BAR
Info:     OSCILLATION PERIOD IS 50 FS
Info:             DECAY TIME IS 25 FS
Info:     PISTON TEMPERATURE IS 300 K
Info:       PRESSURE CONTROL IS GROUP-BASED
Info:    INITIAL STRAIN RATE IS 0 0 0
Info:       CELL FLUCTUATION IS ISOTROPIC
Info: PARTICLE MESH EWALD (PME) ACTIVE
Info: PME TOLERANCE               1e-06
Info: PME EWALD COEFFICIENT       0.348832
Info: PME INTERPOLATION ORDER     4
Info: PME GRID DIMENSIONS         40 36 36
Info: PME MAXIMUM GRID SPACING    1
Info: FULL ELECTROSTATIC EVALUATION FREQUENCY      2
Info: USING VERLET I (r-RESPA) MTS SCHEME.
Info: C1 SPLITTING OF LONG RANGE ELECTROSTATICS
Info: PLACING ATOMS IN PATCHES BY HYDROGEN GROUPS
Info: RIGID BONDS TO HYDROGEN : ALL
Info:         ERROR TOLERANCE : 1e-08
Info:          MAX ITERATIONS : 100
Info: RIGID WATER USING SETTLE ALGORITHM
Info: RANDOM NUMBER SEED     1743900842
Info: USE HYDROGEN BONDS?    NO
Info: Using AMBER format force field!
Info: AMBER PARM FILE        mobley_8320545.prmtop
Info: COORDINATE PDB         mobley_8320545.pdb
Info: Exclusions will be read from PARM file!
Info: SCNB (VDW SCALING)     2
Info: USING ARITHMETIC MEAN TO COMBINE L-J SIGMA PARAMETERS
Info: BINARY COORDINATES     mobley_8320545_min.coor
Info: SUMMARY OF PARAMETERS:
Info: 7 BONDS
Info: 8 ANGLES
Info:   8 HARMONIC
Info:   0 COSINE-BASED
Info: 2 DIHEDRAL
Info: 0 IMPROPER
Info: 0 CROSSTERM
Info: 0 VDW
Info: 28 VDW_PAIRS
Info: 0 NBTHOLE_PAIRS
Info: STRUCTURE SUMMARY:
Info: 2959 ATOMS
Info: 2958 BONDS
Info: 15 ANGLES
Info: 15 DIHEDRALS
Info: 0 IMPROPERS
Info: 0 CROSSTERMS
Info: 2988 EXCLUSIONS
Info: 10 FIXED ATOMS
Info: 2954 RIGID BONDS
Info: 5 RIGID BONDS BETWEEN FIXED ATOMS
Info: 5898 DEGREES OF FREEDOM
Info: 988 HYDROGEN GROUPS
Info: 4 ATOMS IN LARGEST HYDROGEN GROUP
Info: 988 MIGRATION GROUPS
Info: 4 ATOMS IN LARGEST MIGRATION GROUP
Info: 5 HYDROGEN GROUPS WITH ALL ATOMS FIXED
Info: TOTAL MASS = 17784.8 amu
Info: TOTAL CHARGE = 7.45058e-09 e
Info: MASS DENSITY = 0.679592 g/cm^3
Info: ATOM DENSITY = 0.0680903 atoms/A^3
Info: ADDED 0 IMPLICIT EXCLUSIONS
Info: NONBONDED TABLE R-SQUARED SPACING: 0.0625
Info: NONBONDED TABLE SIZE: 705 POINTS
Info: REMOVING COM VELOCITY -0.161833 0.0758637 -0.05132
TCL: Running for 100000 steps
ETITLE: TS BOND ANGLE DIHED IMPRP ELECT VDW BOUNDARY MISC KINETIC TOTAL TEMP POTENTIAL TOTAL3 TEMPAVG PRESSURE GPRESSURE VOLUME PRESSAVG GPRESSAVG
ENERGY: 0 0.0000 0.0000 0.0000 0.0000 -13671.9942 2383.3399 0.0000 0.0000 1797.5397 -9491.1146 306.7355 -11288.6543 -9490.7308 306.7355 295.7945 332.8713 43457.0026 295.7945 332.8713
ENERGY: 100000 0.0000 0.0000 0.0000 0.0000 -14316.3196 2483.7784 0.0000 0.0000 173.8490 -11658.6922 29.6659 -11832.5412 -11658.2754 30.9076 -22.8201 35.6294 28438.1638 4.4139 4.4394
TCL: Running 100000 steps at 60 kelvin.
TCL: Setting parameter langevinTemp to 60
TCL: Running for 100000 steps
ETITLE: TS BOND ANGLE DIHED IMPRP ELECT VDW BOUNDARY MISC KINETIC TOTAL TEMP POTENTIAL TOTAL3 TEMPAVG PRESSURE GPRESSURE VOLUME PRESSAVG GPRESSAVG
ENERGY: 100000 0.0000 0.0000 0.0000 0.0000 -14316.3196 2483.7784 0.0000 0.0000 173.7619 -11658.7793 29.6511 -11832.5412 -11658.3525 29.6511 -17.5324 35.5450 28438.1638 -17.5324 35.5450
ENERGY: 200000 0.0000 0.0000 0.0000 0.0000 -14240.2389 2500.1921 0.0000 0.0000 352.2275 -11387.8192 60.1048 -11740.0468 -11387.1625 59.9885 642.9875 689.4730 28194.0201 3.6462 3.6069
TCL: Running 100000 steps at 90 kelvin.
TCL: Setting parameter langevinTemp to 90
TCL: Running for 100000 steps
ETITLE: TS BOND ANGLE DIHED IMPRP ELECT VDW BOUNDARY MISC KINETIC TOTAL TEMP POTENTIAL TOTAL3 TEMPAVG PRESSURE GPRESSURE VOLUME PRESSAVG GPRESSAVG
ENERGY: 200000 0.0000 0.0000 0.0000 0.0000 -14240.2389 2500.1921 0.0000 0.0000 352.0536 -11387.9932 60.0751 -11740.0468 -11387.2364 60.0751 633.1237 689.2486 28194.0201 633.1237 689.2486
ENERGY: 300000 0.0000 0.0000 0.0000 0.0000 -14013.3773 2372.3975 0.0000 0.0000 558.9864 -11081.9934 95.3865 -11640.9798 -11080.7987 90.0928 -191.6251 -120.2204 28491.3055 4.1783 3.9765
TCL: Running 100000 steps at 120 kelvin.
TCL: Setting parameter langevinTemp to 120
TCL: Running for 100000 steps
ETITLE: TS BOND ANGLE DIHED IMPRP ELECT VDW BOUNDARY MISC KINETIC TOTAL TEMP POTENTIAL TOTAL3 TEMPAVG PRESSURE GPRESSURE VOLUME PRESSAVG GPRESSAVG
ENERGY: 300000 0.0000 0.0000 0.0000 0.0000 -14013.3773 2372.3975 0.0000 0.0000 558.7235 -11082.2563 95.3416 -11640.9798 -11081.1469 95.3416 -161.6147 -120.1803 28491.3055 -161.6147 -120.1803
ENERGY: 400000 0.0000 0.0000 0.0000 0.0000 -13910.4887 2393.4814 0.0000 0.0000 688.5416 -10828.4656 117.4940 -11517.0073 -10826.9452 119.9770 591.7497 570.1956 28686.5971 3.3370 3.2131
TCL: Running 100000 steps at 150 kelvin.
TCL: Setting parameter langevinTemp to 150
TCL: Running for 100000 steps
ETITLE: TS BOND ANGLE DIHED IMPRP ELECT VDW BOUNDARY MISC KINETIC TOTAL TEMP POTENTIAL TOTAL3 TEMPAVG PRESSURE GPRESSURE VOLUME PRESSAVG GPRESSAVG
ENERGY: 400000 0.0000 0.0000 0.0000 0.0000 -13910.4887 2393.4814 0.0000 0.0000 688.1927 -10828.8145 117.4345 -11517.0073 -10827.6549 117.4345 529.6727 570.2403 28686.5971 529.6727 570.2403
ENERGY: 500000 0.0000 0.0000 0.0000 0.0000 -13667.7866 2320.7211 0.0000 0.0000 861.3242 -10485.7414 146.9780 -11347.0656 -10484.0262 150.0459 476.1498 521.1046 28787.5249 4.1480 4.0494
TCL: Running 100000 steps at 180 kelvin.
TCL: Setting parameter langevinTemp to 180
TCL: Running for 100000 steps
ETITLE: TS BOND ANGLE DIHED IMPRP ELECT VDW BOUNDARY MISC KINETIC TOTAL TEMP POTENTIAL TOTAL3 TEMPAVG PRESSURE GPRESSURE VOLUME PRESSAVG GPRESSAVG
ENERGY: 500000 0.0000 0.0000 0.0000 0.0000 -13667.7866 2320.7211 0.0000 0.0000 860.8932 -10486.1724 146.9044 -11347.0656 -10484.4700 146.9044 462.7050 520.1893 28787.5249 462.7050 520.1893
ENERGY: 600000 0.0000 0.0000 0.0000 0.0000 -13063.5446 2002.3770 0.0000 0.0000 1061.6916 -9999.4759 181.1690 -11061.1675 -9995.8716 179.8968 -1189.7234 -1136.0906 29341.7995 4.2054 4.0555
TCL: Running 100000 steps at 210 kelvin.
TCL: Setting parameter langevinTemp to 210
TCL: Running for 100000 steps
ETITLE: TS BOND ANGLE DIHED IMPRP ELECT VDW BOUNDARY MISC KINETIC TOTAL TEMP POTENTIAL TOTAL3 TEMPAVG PRESSURE GPRESSURE VOLUME PRESSAVG GPRESSAVG
ENERGY: 600000 0.0000 0.0000 0.0000 0.0000 -13063.5446 2002.3770 0.0000 0.0000 1061.1575 -10000.0100 181.0779 -11061.1675 -9997.4940 181.0779 -1213.3465 -1136.7201 29341.7995 -1213.3465 -1136.7201
ENERGY: 700000 0.0000 0.0000 0.0000 0.0000 -12508.2540 1898.4167 0.0000 0.0000 1221.8501 -9387.9871 208.4988 -10609.8372 -9386.5347 209.9288 -317.5689 -208.4346 28939.3862 3.0875 3.0076
TCL: Running 100000 steps at 240 kelvin.
TCL: Setting parameter langevinTemp to 240
TCL: Running for 100000 steps
ETITLE: TS BOND ANGLE DIHED IMPRP ELECT VDW BOUNDARY MISC KINETIC TOTAL TEMP POTENTIAL TOTAL3 TEMPAVG PRESSURE GPRESSURE VOLUME PRESSAVG GPRESSAVG
ENERGY: 700000 0.0000 0.0000 0.0000 0.0000 -12508.2540 1898.4167 0.0000 0.0000 1221.2415 -9388.5958 208.3949 -10609.8372 -9386.7433 208.3949 -278.0798 -208.7160 28939.3862 -278.0798 -208.7160
ENERGY: 800000 0.0000 0.0000 0.0000 0.0000 -11820.2640 1632.8366 0.0000 0.0000 1382.7736 -8804.6538 235.9591 -10187.4274 -8800.5733 239.8376 -893.0709 -785.9858 29250.3792 1.6618 1.7967
TCL: Running 100000 steps at 270 kelvin.
TCL: Setting parameter langevinTemp to 270
TCL: Running for 100000 steps
ETITLE: TS BOND ANGLE DIHED IMPRP ELECT VDW BOUNDARY MISC KINETIC TOTAL TEMP POTENTIAL TOTAL3 TEMPAVG PRESSURE GPRESSURE VOLUME PRESSAVG GPRESSAVG
ENERGY: 800000 0.0000 0.0000 0.0000 0.0000 -11820.2640 1632.8366 0.0000 0.0000 1382.0658 -8805.3616 235.8383 -10187.4274 -8802.3062 235.8383 -870.7321 -785.0532 29250.3792 -870.7321 -785.0532
ENERGY: 900000 0.0000 0.0000 0.0000 0.0000 -11286.1261 1590.1230 0.0000 0.0000 1574.5884 -8121.4148 268.6907 -9696.0032 -8120.5987 269.9320 50.2452 151.1568 29789.3959 3.0830 3.0688
TCL: Running 1000000 steps at 300 kelvin.
TCL: Setting parameter langevinTemp to 300
TCL: Running for 1000000 steps
ETITLE: TS BOND ANGLE DIHED IMPRP ELECT VDW BOUNDARY MISC KINETIC TOTAL TEMP POTENTIAL TOTAL3 TEMPAVG PRESSURE GPRESSURE VOLUME PRESSAVG GPRESSAVG
ENERGY: 900000 0.0000 0.0000 0.0000 0.0000 -11286.1261 1590.1230 0.0000 0.0000 1573.8208 -8122.1824 268.5597 -9696.0032 -8119.7097 268.5597 77.1309 148.3754 29789.3959 77.1309 148.3754
ENERGY: 1100000 0.0000 0.0000 0.0000 0.0000 -10769.0250 1476.9234 0.0000 0.0000 1724.2341 -7567.8676 294.2265 -9292.1016 -7562.7447 299.8621 74.0536 149.9616 30651.7425 3.4989 3.4514
ENERGY: 1300000 0.0000 0.0000 0.0000 0.0000 -10721.8238 1475.8575 0.0000 0.0000 1815.2208 -7430.7456 309.7527 -9245.9664 -7424.5256 300.2796 733.8975 822.1498 30177.9151 3.3857 3.1916
ENERGY: 1500000 0.0000 0.0000 0.0000 0.0000 -10714.0638 1398.6981 0.0000 0.0000 1783.7783 -7531.5875 304.3873 -9315.3658 -7528.9691 299.8761 -275.9483 -219.8190 30486.2962 1.7888 1.7507
ENERGY: 1700000 0.0000 0.0000 0.0000 0.0000 -10736.8416 1430.1370 0.0000 0.0000 1818.1775 -7488.5270 310.2572 -9306.7045 -7485.5718 300.5133 -159.1315 -18.6510 30482.7649 2.9284 3.1134
ENERGY: 1900000 0.0000 0.0000 0.0000 0.0000 -10845.3093 1490.0425 0.0000 0.0000 1736.5344 -7618.7324 296.3255 -9355.2668 -7615.4614 300.1475 292.8072 388.9299 30146.1941 2.4790 2.6700
TCL: Exiting due to exit command.
