Info: SIMULATION PARAMETERS:
Info: TIMESTEP               2
Info: NUMBER OF STEPS        0
Info: STEPS PER CYCLE        10
Info: PERIODIC CELL BASIS 1  36.592 0 0
Info: PERIODIC CELL BASIS 2  0 35.779 0
Info: PERIODIC CELL BASIS 3  0 0 34.229
Info: PERIODIC CELL CENTER   0 0 0
Info: WRAPPING WATERS AROUND PERIODIC BOUNDARIES ON OUTPUT.
Info: WRAPPING ALL CLUSTERS AROUND PERIODIC BOUNDARIES ON OUTPUT.
Info: FIRST LDB TIMESTEP     50
Info: LAST LDB TIMESTEP     -1
Info: HOM BACKGROUND SCALING 1
Info: PME BACKGROUND SCALING 1
Info: MIN ATOMS PER PATCH    40
Info: EMPTY PATCH LOAD       40 ATOMS
Info: INITIAL TEMPERATURE    300
Info: CENTER OF MASS MOVING INITIALLY? NO
Info: DIELECTRIC             1
Info: EXCLUDE                SCALED ONE-FOUR
Info: 1-4 ELECTROSTATICS SCALED BY 0.833333
Info: MODIFIED 1-4 VDW PARAMETERS WILL BE USED
Info: DCD FILENAME           mobley_1896013_equil.dcd
Info: DCD FREQUENCY          100000
Info: DCD FIRST STEP         100000
Info: DCD FILE WILL CONTAIN UNIT CELL DATA
Info: XST FILENAME           mobley_1896013_equil.xst
Info: XST FREQUENCY          100000
Info: NO VELOCITY DCD OUTPUT
Info: NO FORCE DCD OUTPUT
Info: OUTPUT FILENAME        mobley_1896013_equil
Info: BINARY OUTPUT FILES WILL BE USED
Info: RESTART FILENAME       mobley_1896013_equil.restart
Info: RESTART FREQUENCY      100000
Info: BINARY RESTART FILES WILL BE USED
Info: CUTOFF                 9
Info: PAIRLIST DISTANCE      11
Info: PAIRLIST SHRINK RATE   0.01
Info: PAIRLIST GROW RATE     0.01
Info: PAIRLIST TRIGGER       0.3
Info: PAIRLISTS PER CYCLE    2
Info: PAIRLISTS ENABLED
Info: MARGIN                 8
Info: HYDROGEN GROUP CUTOFF  2.5
Info: PATCH DIMENSION        21.5
Info: ENERGY OUTPUT STEPS    100000
Info: ENERGY EVALUATION STEPS    100000
Info: OUTPUT ENERGY PRECISION 4
Info: CROSSTERM ENERGY INCLUDED IN DIHEDRAL
Info: TIMING OUTPUT STEPS    1000000
Info: PRESSURE OUTPUT STEPS  100000
Info: FIXED ATOMS ACTIVE
Info: LANGEVIN DYNAMICS ACTIVE
Info: LANGEVIN TEMPERATURE   30
Info: LANGEVIN USING BBK INTEGRATOR
Info: LANGEVIN DAMPING COEFFICIENT IS 1 INVERSE PS
Info: LANGEVIN DYNAMICS APPLIED TO HYDROGENS
Info: LANGEVIN PISTON PRESSURE CONTROL ACTIVE
Info:        TARGET PRESSURE IS 1.01325 BAR
Info:     OSCILLATION PERIOD IS 50 FS
Info:             DECAY TIME IS 25 FS
Info:     PISTON TEMPERATURE IS 300 K
Info:       PRESSURE CONTROL IS GROUP-BASED
Info:    INITIAL STRAIN RATE IS 0 0 0
Info:       CELL FLUCTUATION IS ISOTROPIC
Info: PARTICLE MESH EWALD (PME) ACTIVE
Info: PME TOLERANCE               1e-06
Info: PME EWALD COEFFICIENT       0.348832
Info: PME INTERPOLATION ORDER     4
Info: PME GRID DIMENSIONS         40 36 36
Info: PME MAXIMUM GRID SPACING    1
Info: FULL ELECTROSTATIC EVALUATION FREQUENCY      2
Info: USING VERLET I (r-RESPA) MTS SCHEME.
Info: C1 SPLITTING OF LONG RANGE ELECTROSTATICS
Info: PLACING ATOMS IN PATCHES BY HYDROGEN GROUPS
Info: RIGID BONDS TO HYDROGEN : ALL
Info:         ERROR TOLERANCE : 1e-08
Info:          MAX ITERATIONS : 100
Info: RIGID WATER USING SETTLE ALGORITHM
Info: RANDOM NUMBER SEED     1743764189
Info: USE HYDROGEN BONDS?    NO
Info: Using AMBER format force field!
Info: AMBER PARM FILE        mobley_1896013.prmtop
Info: COORDINATE PDB         mobley_1896013.pdb
Info: Exclusions will be read from PARM file!
Info: SCNB (VDW SCALING)     2
Info: USING ARITHMETIC MEAN TO COMBINE L-J SIGMA PARAMETERS
Info: BINARY COORDINATES     mobley_1896013_min.coor
Info: SUMMARY OF PARAMETERS:
Info: 8 BONDS
Info: 13 ANGLES
Info:   13 HARMONIC
Info:   0 COSINE-BASED
Info: 13 DIHEDRAL
Info: 0 IMPROPER
Info: 0 CROSSTERM
Info: 0 VDW
Info: 28 VDW_PAIRS
Info: 0 NBTHOLE_PAIRS
Info: STRUCTURE SUMMARY:
Info: 2948 ATOMS
Info: 2948 BONDS
Info: 35 ANGLES
Info: 81 DIHEDRALS
Info: 0 IMPROPERS
Info: 0 CROSSTERMS
Info: 3034 EXCLUSIONS
Info: 20 FIXED ATOMS
Info: 2938 RIGID BONDS
Info: 10 RIGID BONDS BETWEEN FIXED ATOMS
Info: 5856 DEGREES OF FREEDOM
Info: 986 HYDROGEN GROUPS
Info: 3 ATOMS IN LARGEST HYDROGEN GROUP
Info: 986 MIGRATION GROUPS
Info: 3 ATOMS IN LARGEST MIGRATION GROUP
Info: 10 HYDROGEN GROUPS WITH ALL ATOMS FIXED
Info: TOTAL MASS = 17733.7 amu
Info: TOTAL CHARGE = -9.9957e-05 e
Info: MASS DENSITY = 0.65713 g/cm^3
Info: ATOM DENSITY = 0.0657838 atoms/A^3
Info: ADDED 0 IMPLICIT EXCLUSIONS
Info: NONBONDED TABLE R-SQUARED SPACING: 0.0625
Info: NONBONDED TABLE SIZE: 705 POINTS
Info: REMOVING COM VELOCITY -0.101895 0.00279129 -0.179419
TCL: Running for 100000 steps
ETITLE: TS BOND ANGLE DIHED IMPRP ELECT VDW BOUNDARY MISC KINETIC TOTAL TEMP POTENTIAL TOTAL3 TEMPAVG PRESSURE GPRESSURE VOLUME PRESSAVG GPRESSAVG
ENERGY: 0 0.0000 0.0000 0.0000 0.0000 -13791.6302 2400.1469 0.0000 0.0000 1755.1141 -9636.3692 301.6440 -11391.4834 -9636.0030 301.6440 406.0790 447.0983 44813.4683 406.0790 447.0983
ENERGY: 100000 0.0000 0.0000 0.0000 0.0000 -14360.2869 2496.4515 0.0000 0.0000 175.7052 -11688.1301 30.1977 -11863.8354 -11687.8934 30.8594 192.2526 274.1757 28971.1530 3.8707 3.8954
TCL: Running 100000 steps at 60 kelvin.
TCL: Setting parameter langevinTemp to 60
TCL: Running for 100000 steps
ETITLE: TS BOND ANGLE DIHED IMPRP ELECT VDW BOUNDARY MISC KINETIC TOTAL TEMP POTENTIAL TOTAL3 TEMPAVG PRESSURE GPRESSURE VOLUME PRESSAVG GPRESSAVG
ENERGY: 100000 0.0000 0.0000 0.0000 0.0000 -14360.2869 2496.4515 0.0000 0.0000 175.6218 -11688.2136 30.1834 -11863.8354 -11687.8469 30.1834 194.6657 274.1413 28971.1530 194.6657 274.1413
ENERGY: 200000 0.0000 0.0000 0.0000 0.0000 -14213.6486 2387.1991 0.0000 0.0000 350.6887 -11475.7608 60.2714 -11826.4495 -11474.8492 59.9190 -354.9285 -278.9149 28570.2196 4.1658 4.1105
TCL: Running 100000 steps at 90 kelvin.
TCL: Setting parameter langevinTemp to 90
TCL: Running for 100000 steps
ETITLE: TS BOND ANGLE DIHED IMPRP ELECT VDW BOUNDARY MISC KINETIC TOTAL TEMP POTENTIAL TOTAL3 TEMPAVG PRESSURE GPRESSURE VOLUME PRESSAVG GPRESSAVG
ENERGY: 200000 0.0000 0.0000 0.0000 0.0000 -14213.6486 2387.1991 0.0000 0.0000 350.5182 -11475.9312 60.2421 -11826.4495 -11475.1485 60.2421 -329.3824 -278.7047 28570.2196 -329.3824 -278.7047
ENERGY: 300000 0.0000 0.0000 0.0000 0.0000 -14141.2538 2384.0014 0.0000 0.0000 533.1331 -11224.1193 91.6273 -11757.2524 -11222.3683 90.1109 -19.6305 30.4460 28463.4204 3.7000 3.7078
TCL: Running 100000 steps at 120 kelvin.
TCL: Setting parameter langevinTemp to 120
TCL: Running for 100000 steps
ETITLE: TS BOND ANGLE DIHED IMPRP ELECT VDW BOUNDARY MISC KINETIC TOTAL TEMP POTENTIAL TOTAL3 TEMPAVG PRESSURE GPRESSURE VOLUME PRESSAVG GPRESSAVG
ENERGY: 300000 0.0000 0.0000 0.0000 0.0000 -14141.2538 2384.0014 0.0000 0.0000 532.8776 -11224.3747 91.5834 -11757.2524 -11223.1354 91.5834 -12.8224 29.9658 28463.4204 -12.8224 29.9658
ENERGY: 400000 0.0000 0.0000 0.0000 0.0000 -14006.4481 2407.7563 0.0000 0.0000 709.6500 -10889.0417 121.9645 -11598.6917 -10888.0948 120.0820 526.5929 579.2222 28965.7331 3.4528 3.4543
TCL: Running 100000 steps at 150 kelvin.
TCL: Setting parameter langevinTemp to 150
TCL: Running for 100000 steps
ETITLE: TS BOND ANGLE DIHED IMPRP ELECT VDW BOUNDARY MISC KINETIC TOTAL TEMP POTENTIAL TOTAL3 TEMPAVG PRESSURE GPRESSURE VOLUME PRESSAVG GPRESSAVG
ENERGY: 400000 0.0000 0.0000 0.0000 0.0000 -14006.4481 2407.7563 0.0000 0.0000 709.3045 -10889.3872 121.9051 -11598.6917 -10888.2614 121.9051 524.7243 579.2786 28965.7331 524.7243 579.2786
ENERGY: 500000 0.0000 0.0000 0.0000 0.0000 -13720.5556 2261.0733 0.0000 0.0000 886.8519 -10572.6304 152.4195 -11459.4823 -10572.2525 149.8222 -28.3265 17.7992 28728.2586 5.0219 4.9125
TCL: Running 100000 steps at 180 kelvin.
TCL: Setting parameter langevinTemp to 180
TCL: Running for 100000 steps
ETITLE: TS BOND ANGLE DIHED IMPRP ELECT VDW BOUNDARY MISC KINETIC TOTAL TEMP POTENTIAL TOTAL3 TEMPAVG PRESSURE GPRESSURE VOLUME PRESSAVG GPRESSAVG
ENERGY: 500000 0.0000 0.0000 0.0000 0.0000 -13720.5556 2261.0733 0.0000 0.0000 886.4182 -10573.0641 152.3449 -11459.4823 -10571.1526 152.3449 -44.2039 17.1412 28728.2586 -44.2039 17.1412
ENERGY: 600000 0.0000 0.0000 0.0000 0.0000 -13176.8787 2039.0828 0.0000 0.0000 1025.2401 -10112.5557 176.2037 -11137.7959 -10111.1627 179.5682 -646.7796 -533.9644 28830.2970 3.7445 3.7236
TCL: Running 100000 steps at 210 kelvin.
TCL: Setting parameter langevinTemp to 210
TCL: Running for 100000 steps
ETITLE: TS BOND ANGLE DIHED IMPRP ELECT VDW BOUNDARY MISC KINETIC TOTAL TEMP POTENTIAL TOTAL3 TEMPAVG PRESSURE GPRESSURE VOLUME PRESSAVG GPRESSAVG
ENERGY: 600000 0.0000 0.0000 0.0000 0.0000 -13176.8787 2039.0828 0.0000 0.0000 1024.7146 -10113.0812 176.1133 -11137.7959 -10111.0952 176.1133 -603.8100 -535.1534 28830.2970 -603.8100 -535.1534
ENERGY: 700000 0.0000 0.0000 0.0000 0.0000 -12612.3923 1961.6323 0.0000 0.0000 1227.5922 -9423.1679 210.9810 -10650.7600 -9421.9438 210.3290 576.9943 633.1674 28664.0899 2.5128 2.4118
TCL: Running 100000 steps at 240 kelvin.
TCL: Setting parameter langevinTemp to 240
TCL: Running for 100000 steps
ETITLE: TS BOND ANGLE DIHED IMPRP ELECT VDW BOUNDARY MISC KINETIC TOTAL TEMP POTENTIAL TOTAL3 TEMPAVG PRESSURE GPRESSURE VOLUME PRESSAVG GPRESSAVG
ENERGY: 700000 0.0000 0.0000 0.0000 0.0000 -12612.3923 1961.6323 0.0000 0.0000 1226.9482 -9423.8119 210.8704 -10650.7600 -9422.1677 210.8704 561.5827 633.1410 28664.0899 561.5827 633.1410
ENERGY: 800000 0.0000 0.0000 0.0000 0.0000 -11846.2206 1645.5096 0.0000 0.0000 1396.6453 -8804.0658 240.0355 -10200.7111 -8800.3527 239.8482 -126.0792 10.9771 28580.3136 2.5393 2.4987
TCL: Running 100000 steps at 270 kelvin.
TCL: Setting parameter langevinTemp to 270
TCL: Running for 100000 steps
ETITLE: TS BOND ANGLE DIHED IMPRP ELECT VDW BOUNDARY MISC KINETIC TOTAL TEMP POTENTIAL TOTAL3 TEMPAVG PRESSURE GPRESSURE VOLUME PRESSAVG GPRESSAVG
ENERGY: 800000 0.0000 0.0000 0.0000 0.0000 -11846.2206 1645.5096 0.0000 0.0000 1395.9334 -8804.7777 239.9131 -10200.7111 -8802.4892 239.9131 -63.6023 11.6689 28580.3136 -63.6023 11.6689
ENERGY: 900000 0.0000 0.0000 0.0000 0.0000 -11252.1595 1485.3595 0.0000 0.0000 1565.9168 -8200.8832 269.1274 -9766.8000 -8197.5582 269.7037 -572.2244 -458.3998 29754.8760 3.1549 3.1051
TCL: Running 1000000 steps at 300 kelvin.
TCL: Setting parameter langevinTemp to 300
TCL: Running for 1000000 steps
ETITLE: TS BOND ANGLE DIHED IMPRP ELECT VDW BOUNDARY MISC KINETIC TOTAL TEMP POTENTIAL TOTAL3 TEMPAVG PRESSURE GPRESSURE VOLUME PRESSAVG GPRESSAVG
ENERGY: 900000 0.0000 0.0000 0.0000 0.0000 -11252.1595 1485.3595 0.0000 0.0000 1565.1136 -8201.6864 268.9894 -9766.8000 -8199.6693 268.9894 -538.1941 -459.0811 29754.8760 -538.1941 -459.0811
ENERGY: 1100000 0.0000 0.0000 0.0000 0.0000 -10854.7968 1477.4983 0.0000 0.0000 1747.3476 -7629.9508 300.3092 -9377.2985 -7625.7938 300.2246 289.2519 370.5260 30380.1239 3.8472 3.8817
ENERGY: 1300000 0.0000 0.0000 0.0000 0.0000 -10691.8814 1365.0907 0.0000 0.0000 1706.4398 -7620.3509 293.2785 -9326.7907 -7617.7954 300.2492 -413.5303 -317.4635 30448.6179 3.3423 3.3569
ENERGY: 1500000 0.0000 0.0000 0.0000 0.0000 -10774.0474 1434.5693 0.0000 0.0000 1692.5156 -7646.9624 290.8854 -9339.4780 -7644.7213 301.0352 365.5794 447.4103 29998.3584 3.1323 3.0912
ENERGY: 1700000 0.0000 0.0000 0.0000 0.0000 -10836.6557 1407.5616 0.0000 0.0000 1784.9279 -7644.1663 306.7680 -9429.0942 -7641.3807 300.3920 -239.5060 -173.5373 30457.5704 2.5801 2.4636
ENERGY: 1900000 0.0000 0.0000 0.0000 0.0000 -10790.8908 1439.1915 0.0000 0.0000 1712.9171 -7638.7822 294.3918 -9351.6993 -7635.2734 299.5669 105.1961 195.9402 30527.9256 3.9570 3.8277
TCL: Exiting due to exit command.
