Info: SIMULATION PARAMETERS:
Info: TIMESTEP               2
Info: NUMBER OF STEPS        0
Info: STEPS PER CYCLE        10
Info: PERIODIC CELL BASIS 1  37.38 0 0
Info: PERIODIC CELL BASIS 2  0 35.779 0
Info: PERIODIC CELL BASIS 3  0 0 32.993
Info: PERIODIC CELL CENTER   0 0 0
Info: WRAPPING WATERS AROUND PERIODIC BOUNDARIES ON OUTPUT.
Info: WRAPPING ALL CLUSTERS AROUND PERIODIC BOUNDARIES ON OUTPUT.
Info: FIRST LDB TIMESTEP     50
Info: LAST LDB TIMESTEP     -1
Info: HOM BACKGROUND SCALING 1
Info: PME BACKGROUND SCALING 1
Info: MIN ATOMS PER PATCH    40
Info: EMPTY PATCH LOAD       40 ATOMS
Info: INITIAL TEMPERATURE    300
Info: CENTER OF MASS MOVING INITIALLY? NO
Info: DIELECTRIC             1
Info: EXCLUDE                SCALED ONE-FOUR
Info: 1-4 ELECTROSTATICS SCALED BY 0.833333
Info: MODIFIED 1-4 VDW PARAMETERS WILL BE USED
Info: DCD FILENAME           mobley_1424265_equil.dcd
Info: DCD FREQUENCY          100000
Info: DCD FIRST STEP         100000
Info: DCD FILE WILL CONTAIN UNIT CELL DATA
Info: XST FILENAME           mobley_1424265_equil.xst
Info: XST FREQUENCY          100000
Info: NO VELOCITY DCD OUTPUT
Info: NO FORCE DCD OUTPUT
Info: OUTPUT FILENAME        mobley_1424265_equil
Info: BINARY OUTPUT FILES WILL BE USED
Info: RESTART FILENAME       mobley_1424265_equil.restart
Info: RESTART FREQUENCY      100000
Info: BINARY RESTART FILES WILL BE USED
Info: CUTOFF                 9
Info: PAIRLIST DISTANCE      11
Info: PAIRLIST SHRINK RATE   0.01
Info: PAIRLIST GROW RATE     0.01
Info: PAIRLIST TRIGGER       0.3
Info: PAIRLISTS PER CYCLE    2
Info: PAIRLISTS ENABLED
Info: MARGIN                 8
Info: HYDROGEN GROUP CUTOFF  2.5
Info: PATCH DIMENSION        21.5
Info: ENERGY OUTPUT STEPS    100000
Info: ENERGY EVALUATION STEPS    100000
Info: OUTPUT ENERGY PRECISION 4
Info: CROSSTERM ENERGY INCLUDED IN DIHEDRAL
Info: TIMING OUTPUT STEPS    1000000
Info: PRESSURE OUTPUT STEPS  100000
Info: FIXED ATOMS ACTIVE
Info: LANGEVIN DYNAMICS ACTIVE
Info: LANGEVIN TEMPERATURE   30
Info: LANGEVIN USING BBK INTEGRATOR
Info: LANGEVIN DAMPING COEFFICIENT IS 1 INVERSE PS
Info: LANGEVIN DYNAMICS APPLIED TO HYDROGENS
Info: LANGEVIN PISTON PRESSURE CONTROL ACTIVE
Info:        TARGET PRESSURE IS 1.01325 BAR
Info:     OSCILLATION PERIOD IS 50 FS
Info:             DECAY TIME IS 25 FS
Info:     PISTON TEMPERATURE IS 300 K
Info:       PRESSURE CONTROL IS GROUP-BASED
Info:    INITIAL STRAIN RATE IS 0 0 0
Info:       CELL FLUCTUATION IS ISOTROPIC
Info: PARTICLE MESH EWALD (PME) ACTIVE
Info: PME TOLERANCE               1e-06
Info: PME EWALD COEFFICIENT       0.348832
Info: PME INTERPOLATION ORDER     4
Info: PME GRID DIMENSIONS         40 36 36
Info: PME MAXIMUM GRID SPACING    1
Info: FULL ELECTROSTATIC EVALUATION FREQUENCY      2
Info: USING VERLET I (r-RESPA) MTS SCHEME.
Info: C1 SPLITTING OF LONG RANGE ELECTROSTATICS
Info: PLACING ATOMS IN PATCHES BY HYDROGEN GROUPS
Info: RIGID BONDS TO HYDROGEN : ALL
Info:         ERROR TOLERANCE : 1e-08
Info:          MAX ITERATIONS : 100
Info: RIGID WATER USING SETTLE ALGORITHM
Info: RANDOM NUMBER SEED     1744676616
Info: USE HYDROGEN BONDS?    NO
Info: Using AMBER format force field!
Info: AMBER PARM FILE        mobley_1424265.prmtop
Info: COORDINATE PDB         mobley_1424265.pdb
Info: Exclusions will be read from PARM file!
Info: SCNB (VDW SCALING)     2
Info: USING ARITHMETIC MEAN TO COMBINE L-J SIGMA PARAMETERS
Info: BINARY COORDINATES     mobley_1424265_min.coor
Info: SUMMARY OF PARAMETERS:
Info: 6 BONDS
Info: 5 ANGLES
Info:   5 HARMONIC
Info:   0 COSINE-BASED
Info: 3 DIHEDRAL
Info: 0 IMPROPER
Info: 0 CROSSTERM
Info: 0 VDW
Info: 21 VDW_PAIRS
Info: 0 NBTHOLE_PAIRS
Info: STRUCTURE SUMMARY:
Info: 2922 ATOMS
Info: 2922 BONDS
Info: 30 ANGLES
Info: 42 DIHEDRALS
Info: 0 IMPROPERS
Info: 0 CROSSTERMS
Info: 2985 EXCLUSIONS
Info: 18 FIXED ATOMS
Info: 2914 RIGID BONDS
Info: 10 RIGID BONDS BETWEEN FIXED ATOMS
Info: 5808 DEGREES OF FREEDOM
Info: 976 HYDROGEN GROUPS
Info: 4 ATOMS IN LARGEST HYDROGEN GROUP
Info: 976 MIGRATION GROUPS
Info: 4 ATOMS IN LARGEST MIGRATION GROUP
Info: 8 HYDROGEN GROUPS WITH ALL ATOMS FIXED
Info: TOTAL MASS = 17545.6 amu
Info: TOTAL CHARGE = 3.72529e-08 e
Info: MASS DENSITY = 0.660297 g/cm^3
Info: ATOM DENSITY = 0.0662203 atoms/A^3
Info: ADDED 0 IMPLICIT EXCLUSIONS
Info: NONBONDED TABLE R-SQUARED SPACING: 0.0625
Info: NONBONDED TABLE SIZE: 705 POINTS
Info: REMOVING COM VELOCITY -0.0421341 -0.0448831 -0.0300066
TCL: Running for 100000 steps
ETITLE: TS BOND ANGLE DIHED IMPRP ELECT VDW BOUNDARY MISC KINETIC TOTAL TEMP POTENTIAL TOTAL3 TEMPAVG PRESSURE GPRESSURE VOLUME PRESSAVG GPRESSAVG
ENERGY: 0 0.0000 0.0000 0.0000 0.0000 -13496.2216 2358.5251 0.0000 0.0000 1730.5386 -9407.1580 299.8783 -11137.6965 -9406.8243 299.8783 383.7245 414.7565 44125.4657 383.7245 414.7565
ENERGY: 100000 0.0000 0.0000 0.0000 0.0000 -13996.1639 2422.7791 0.0000 0.0000 170.2624 -11403.1224 29.5041 -11573.3848 -11402.6190 30.8563 -103.6523 -41.9520 28983.5255 4.4500 4.4463
TCL: Running 100000 steps at 60 kelvin.
TCL: Setting parameter langevinTemp to 60
TCL: Running for 100000 steps
ETITLE: TS BOND ANGLE DIHED IMPRP ELECT VDW BOUNDARY MISC KINETIC TOTAL TEMP POTENTIAL TOTAL3 TEMPAVG PRESSURE GPRESSURE VOLUME PRESSAVG GPRESSAVG
ENERGY: 100000 0.0000 0.0000 0.0000 0.0000 -13996.1639 2422.7791 0.0000 0.0000 170.1755 -11403.2093 29.4891 -11573.3848 -11402.8856 29.4891 -102.5005 -41.9771 28983.5255 -102.5005 -41.9771
ENERGY: 200000 0.0000 0.0000 0.0000 0.0000 -13946.8842 2439.2507 0.0000 0.0000 346.8082 -11160.8252 60.0971 -11507.6335 -11160.2139 60.0097 355.7197 433.7850 28703.0255 4.3690 4.4155
TCL: Running 100000 steps at 90 kelvin.
TCL: Setting parameter langevinTemp to 90
TCL: Running for 100000 steps
ETITLE: TS BOND ANGLE DIHED IMPRP ELECT VDW BOUNDARY MISC KINETIC TOTAL TEMP POTENTIAL TOTAL3 TEMPAVG PRESSURE GPRESSURE VOLUME PRESSAVG GPRESSAVG
ENERGY: 200000 0.0000 0.0000 0.0000 0.0000 -13946.8842 2439.2507 0.0000 0.0000 346.6323 -11161.0012 60.0666 -11507.6335 -11160.3526 60.0666 382.9442 433.7745 28703.0255 382.9442 433.7745
ENERGY: 300000 0.0000 0.0000 0.0000 0.0000 -13795.5486 2347.7885 0.0000 0.0000 503.4749 -10944.2852 87.2452 -11447.7601 -10942.8458 89.8364 -274.7165 -179.1983 28529.2184 3.9472 3.9364
TCL: Running 100000 steps at 120 kelvin.
TCL: Setting parameter langevinTemp to 120
TCL: Running for 100000 steps
ETITLE: TS BOND ANGLE DIHED IMPRP ELECT VDW BOUNDARY MISC KINETIC TOTAL TEMP POTENTIAL TOTAL3 TEMPAVG PRESSURE GPRESSURE VOLUME PRESSAVG GPRESSAVG
ENERGY: 300000 0.0000 0.0000 0.0000 0.0000 -13795.5486 2347.7885 0.0000 0.0000 503.2214 -10944.5387 87.2013 -11447.7601 -10943.5498 87.2013 -241.6712 -178.8778 28529.2184 -241.6712 -178.8778
ENERGY: 400000 0.0000 0.0000 0.0000 0.0000 -13703.9598 2379.6741 0.0000 0.0000 686.8539 -10637.4318 119.0222 -11324.2857 -10635.6044 119.9924 784.9627 848.7343 28062.2444 3.8237 3.8355
TCL: Running 100000 steps at 150 kelvin.
TCL: Setting parameter langevinTemp to 150
TCL: Running for 100000 steps
ETITLE: TS BOND ANGLE DIHED IMPRP ELECT VDW BOUNDARY MISC KINETIC TOTAL TEMP POTENTIAL TOTAL3 TEMPAVG PRESSURE GPRESSURE VOLUME PRESSAVG GPRESSAVG
ENERGY: 400000 0.0000 0.0000 0.0000 0.0000 -13703.9598 2379.6741 0.0000 0.0000 686.5229 -10637.7628 118.9649 -11324.2857 -10636.4251 118.9649 805.5960 848.8357 28062.2444 805.5960 848.8357
ENERGY: 500000 0.0000 0.0000 0.0000 0.0000 -13216.1989 2062.7919 0.0000 0.0000 843.5269 -10309.8801 146.1715 -11153.4070 -10308.1060 149.7916 -1259.5981 -1225.7419 28638.7985 3.4040 3.4103
TCL: Running 100000 steps at 180 kelvin.
TCL: Setting parameter langevinTemp to 180
TCL: Running for 100000 steps
ETITLE: TS BOND ANGLE DIHED IMPRP ELECT VDW BOUNDARY MISC KINETIC TOTAL TEMP POTENTIAL TOTAL3 TEMPAVG PRESSURE GPRESSURE VOLUME PRESSAVG GPRESSAVG
ENERGY: 500000 0.0000 0.0000 0.0000 0.0000 -13216.1989 2062.7919 0.0000 0.0000 843.1066 -10310.3004 146.0987 -11153.4070 -10308.3264 146.0987 -1280.6856 -1225.9850 28638.7985 -1280.6856 -1225.9850
ENERGY: 600000 0.0000 0.0000 0.0000 0.0000 -13026.8866 2112.2959 0.0000 0.0000 1025.8641 -9888.7266 177.7680 -10914.5906 -9886.6886 179.4553 0.4932 45.3153 28640.5269 3.5474 3.4178
TCL: Running 100000 steps at 210 kelvin.
TCL: Setting parameter langevinTemp to 210
TCL: Running for 100000 steps
ETITLE: TS BOND ANGLE DIHED IMPRP ELECT VDW BOUNDARY MISC KINETIC TOTAL TEMP POTENTIAL TOTAL3 TEMPAVG PRESSURE GPRESSURE VOLUME PRESSAVG GPRESSAVG
ENERGY: 600000 0.0000 0.0000 0.0000 0.0000 -13026.8866 2112.2959 0.0000 0.0000 1025.3130 -9889.2777 177.6725 -10914.5906 -9886.9800 177.6725 -14.3676 44.9705 28640.5269 -14.3676 44.9705
ENERGY: 700000 0.0000 0.0000 0.0000 0.0000 -12251.5729 1890.2529 0.0000 0.0000 1223.9571 -9137.3628 212.0948 -10361.3199 -9134.0371 209.8477 -66.3409 -1.1127 29118.5679 4.2438 4.1220
TCL: Running 100000 steps at 240 kelvin.
TCL: Setting parameter langevinTemp to 240
TCL: Running for 100000 steps
ETITLE: TS BOND ANGLE DIHED IMPRP ELECT VDW BOUNDARY MISC KINETIC TOTAL TEMP POTENTIAL TOTAL3 TEMPAVG PRESSURE GPRESSURE VOLUME PRESSAVG GPRESSAVG
ENERGY: 700000 0.0000 0.0000 0.0000 0.0000 -12251.5729 1890.2529 0.0000 0.0000 1223.3292 -9137.9908 211.9860 -10361.3199 -9136.1607 211.9860 -66.4266 0.4354 29118.5679 -66.4266 0.4354
ENERGY: 800000 0.0000 0.0000 0.0000 0.0000 -11596.0919 1584.4789 0.0000 0.0000 1403.0406 -8608.5725 243.1275 -10011.6131 -8606.7066 239.6985 -1247.0897 -1106.1998 29147.9457 4.0548 4.3213
TCL: Running 100000 steps at 270 kelvin.
TCL: Setting parameter langevinTemp to 270
TCL: Running for 100000 steps
ETITLE: TS BOND ANGLE DIHED IMPRP ELECT VDW BOUNDARY MISC KINETIC TOTAL TEMP POTENTIAL TOTAL3 TEMPAVG PRESSURE GPRESSURE VOLUME PRESSAVG GPRESSAVG
ENERGY: 800000 0.0000 0.0000 0.0000 0.0000 -11596.0919 1584.4789 0.0000 0.0000 1402.3413 -8609.2718 243.0063 -10011.6131 -8606.9446 243.0063 -1176.1885 -1106.8116 29147.9457 -1176.1885 -1106.8116
ENERGY: 900000 0.0000 0.0000 0.0000 0.0000 -11072.9046 1516.1966 0.0000 0.0000 1524.5070 -8032.2010 264.1759 -9556.7080 -8031.8509 269.9009 -136.9987 -40.0306 28975.3573 3.9392 3.9639
TCL: Running 1000000 steps at 300 kelvin.
TCL: Setting parameter langevinTemp to 300
TCL: Running for 1000000 steps
ETITLE: TS BOND ANGLE DIHED IMPRP ELECT VDW BOUNDARY MISC KINETIC TOTAL TEMP POTENTIAL TOTAL3 TEMPAVG PRESSURE GPRESSURE VOLUME PRESSAVG GPRESSAVG
ENERGY: 900000 0.0000 0.0000 0.0000 0.0000 -11072.9046 1516.1966 0.0000 0.0000 1523.6936 -8033.0144 264.0350 -9556.7080 -8030.6003 264.0350 -125.8988 -41.1184 28975.3573 -125.8988 -41.1184
ENERGY: 1100000 0.0000 0.0000 0.0000 0.0000 -10606.1927 1422.4548 0.0000 0.0000 1736.4202 -7447.3177 300.8975 -9183.7380 -7443.2353 300.6114 -192.9778 -160.8737 30378.8081 2.8852 2.8963
ENERGY: 1300000 0.0000 0.0000 0.0000 0.0000 -10465.9579 1313.0787 0.0000 0.0000 1736.1957 -7416.6834 300.8586 -9152.8792 -7413.5919 300.1217 -783.6692 -723.7485 30372.5515 3.6792 3.6075
ENERGY: 1500000 0.0000 0.0000 0.0000 0.0000 -10578.7098 1371.4800 0.0000 0.0000 1721.5196 -7485.7102 298.3155 -9207.2298 -7485.2088 300.6637 -603.7077 -450.5436 30123.1286 1.9222 2.0968
ENERGY: 1700000 0.0000 0.0000 0.0000 0.0000 -10592.7082 1378.2131 0.0000 0.0000 1741.4485 -7473.0467 301.7688 -9214.4951 -7467.7524 300.6511 -266.6105 -176.7476 29830.7344 3.7097 3.7163
ENERGY: 1900000 0.0000 0.0000 0.0000 0.0000 -10635.7964 1430.7605 0.0000 0.0000 1759.2014 -7445.8345 304.8452 -9205.0359 -7441.3301 301.0795 -16.0122 38.3105 30193.7542 2.7277 2.5639
TCL: Exiting due to exit command.
