Info: SIMULATION PARAMETERS:
Info: TIMESTEP               2
Info: NUMBER OF STEPS        0
Info: STEPS PER CYCLE        10
Info: PERIODIC CELL BASIS 1  35.89 0 0
Info: PERIODIC CELL BASIS 2  0 35.779 0
Info: PERIODIC CELL BASIS 3  0 0 34.68
Info: PERIODIC CELL CENTER   0 0 0
Info: WRAPPING WATERS AROUND PERIODIC BOUNDARIES ON OUTPUT.
Info: WRAPPING ALL CLUSTERS AROUND PERIODIC BOUNDARIES ON OUTPUT.
Info: FIRST LDB TIMESTEP     50
Info: LAST LDB TIMESTEP     -1
Info: HOM BACKGROUND SCALING 1
Info: PME BACKGROUND SCALING 1
Info: MIN ATOMS PER PATCH    40
Info: EMPTY PATCH LOAD       40 ATOMS
Info: INITIAL TEMPERATURE    300
Info: CENTER OF MASS MOVING INITIALLY? NO
Info: DIELECTRIC             1
Info: EXCLUDE                SCALED ONE-FOUR
Info: 1-4 ELECTROSTATICS SCALED BY 0.833333
Info: MODIFIED 1-4 VDW PARAMETERS WILL BE USED
Info: DCD FILENAME           mobley_6739648_equil.dcd
Info: DCD FREQUENCY          100000
Info: DCD FIRST STEP         100000
Info: DCD FILE WILL CONTAIN UNIT CELL DATA
Info: XST FILENAME           mobley_6739648_equil.xst
Info: XST FREQUENCY          100000
Info: NO VELOCITY DCD OUTPUT
Info: NO FORCE DCD OUTPUT
Info: OUTPUT FILENAME        mobley_6739648_equil
Info: BINARY OUTPUT FILES WILL BE USED
Info: RESTART FILENAME       mobley_6739648_equil.restart
Info: RESTART FREQUENCY      100000
Info: BINARY RESTART FILES WILL BE USED
Info: CUTOFF                 9
Info: PAIRLIST DISTANCE      11
Info: PAIRLIST SHRINK RATE   0.01
Info: PAIRLIST GROW RATE     0.01
Info: PAIRLIST TRIGGER       0.3
Info: PAIRLISTS PER CYCLE    2
Info: PAIRLISTS ENABLED
Info: MARGIN                 8
Info: HYDROGEN GROUP CUTOFF  2.5
Info: PATCH DIMENSION        21.5
Info: ENERGY OUTPUT STEPS    100000
Info: ENERGY EVALUATION STEPS    100000
Info: OUTPUT ENERGY PRECISION 4
Info: CROSSTERM ENERGY INCLUDED IN DIHEDRAL
Info: TIMING OUTPUT STEPS    1000000
Info: PRESSURE OUTPUT STEPS  100000
Info: FIXED ATOMS ACTIVE
Info: LANGEVIN DYNAMICS ACTIVE
Info: LANGEVIN TEMPERATURE   30
Info: LANGEVIN USING BBK INTEGRATOR
Info: LANGEVIN DAMPING COEFFICIENT IS 1 INVERSE PS
Info: LANGEVIN DYNAMICS APPLIED TO HYDROGENS
Info: LANGEVIN PISTON PRESSURE CONTROL ACTIVE
Info:        TARGET PRESSURE IS 1.01325 BAR
Info:     OSCILLATION PERIOD IS 50 FS
Info:             DECAY TIME IS 25 FS
Info:     PISTON TEMPERATURE IS 300 K
Info:       PRESSURE CONTROL IS GROUP-BASED
Info:    INITIAL STRAIN RATE IS 0 0 0
Info:       CELL FLUCTUATION IS ISOTROPIC
Info: PARTICLE MESH EWALD (PME) ACTIVE
Info: PME TOLERANCE               1e-06
Info: PME EWALD COEFFICIENT       0.348832
Info: PME INTERPOLATION ORDER     4
Info: PME GRID DIMENSIONS         36 36 36
Info: PME MAXIMUM GRID SPACING    1
Info: FULL ELECTROSTATIC EVALUATION FREQUENCY      2
Info: USING VERLET I (r-RESPA) MTS SCHEME.
Info: C1 SPLITTING OF LONG RANGE ELECTROSTATICS
Info: PLACING ATOMS IN PATCHES BY HYDROGEN GROUPS
Info: RIGID BONDS TO HYDROGEN : ALL
Info:         ERROR TOLERANCE : 1e-08
Info:          MAX ITERATIONS : 100
Info: RIGID WATER USING SETTLE ALGORITHM
Info: RANDOM NUMBER SEED     1743731212
Info: USE HYDROGEN BONDS?    NO
Info: Using AMBER format force field!
Info: AMBER PARM FILE        mobley_6739648.prmtop
Info: COORDINATE PDB         mobley_6739648.pdb
Info: Exclusions will be read from PARM file!
Info: SCNB (VDW SCALING)     2
Info: USING ARITHMETIC MEAN TO COMBINE L-J SIGMA PARAMETERS
Info: BINARY COORDINATES     mobley_6739648_min.coor
Info: SUMMARY OF PARAMETERS:
Info: 5 BONDS
Info: 5 ANGLES
Info: 8 DIHEDRAL
Info: 0 IMPROPER
Info: 0 CROSSTERM
Info: 0 VDW
Info: 15 VDW_PAIRS
Info: 0 NBTHOLE_PAIRS
Info: STRUCTURE SUMMARY:
Info: 2900 ATOMS
Info: 2900 BONDS
Info: 26 ANGLES
Info: 44 DIHEDRALS
Info: 0 IMPROPERS
Info: 0 CROSSTERMS
Info: 2953 EXCLUSIONS
Info: 14 FIXED ATOMS
Info: 2894 RIGID BONDS
Info: 8 RIGID BONDS BETWEEN FIXED ATOMS
Info: 5772 DEGREES OF FREEDOM
Info: 968 HYDROGEN GROUPS
Info: 3 ATOMS IN LARGEST HYDROGEN GROUP
Info: 968 MIGRATION GROUPS
Info: 3 ATOMS IN LARGEST MIGRATION GROUP
Info: 6 HYDROGEN GROUPS WITH ALL ATOMS FIXED
Info: TOTAL MASS = 17419.5 amu
Info: TOTAL CHARGE = -0.000399977 e
Info: MASS DENSITY = 0.649552 g/cm^3
Info: ATOM DENSITY = 0.0651204 atoms/A^3
Info: ADDED 0 IMPLICIT EXCLUSIONS
Info: NONBONDED TABLE R-SQUARED SPACING: 0.0625
Info: NONBONDED TABLE SIZE: 705 POINTS
Info: REMOVING COM VELOCITY -0.133273 0.30244 -0.0106377
TCL: Running for 100000 steps
ETITLE: TS BOND ANGLE DIHED IMPRP ELECT VDW BOUNDARY MISC KINETIC TOTAL TEMP POTENTIAL TOTAL3 TEMPAVG PRESSURE GPRESSURE VOLUME PRESSAVG GPRESSAVG
ENERGY: 0 0.0000 0.0000 0.0000 0.0000 -13473.4390 2382.4203 0.0000 0.0000 1686.2525 -9404.7662 294.0266 -11091.0188 -9404.4642 294.0266 555.0494 586.1130 44532.8762 555.0494 586.1130
ENERGY: 100000 0.0000 0.0000 0.0000 0.0000 -14049.7823 2486.8207 0.0000 0.0000 173.3901 -11389.5716 30.2335 -11562.9617 -11389.0878 30.8427 506.7672 558.1268 28662.9974 4.5899 4.6143
TCL: Running 100000 steps at 60 kelvin.
TCL: Setting parameter langevinTemp to 60
TCL: Running for 100000 steps
ETITLE: TS BOND ANGLE DIHED IMPRP ELECT VDW BOUNDARY MISC KINETIC TOTAL TEMP POTENTIAL TOTAL3 TEMPAVG PRESSURE GPRESSURE VOLUME PRESSAVG GPRESSAVG
ENERGY: 100000 0.0000 0.0000 0.0000 0.0000 -14049.7823 2486.8207 0.0000 0.0000 173.3038 -11389.6579 30.2184 -11562.9617 -11389.3617 30.2184 503.8304 558.2945 28662.9974 503.8304 558.2945
ENERGY: 200000 0.0000 0.0000 0.0000 0.0000 -13919.3378 2429.0183 0.0000 0.0000 335.9831 -11154.3363 58.5843 -11490.3195 -11153.6706 59.9103 254.6617 334.6241 28608.0803 2.8258 2.8414
TCL: Running 100000 steps at 90 kelvin.
TCL: Setting parameter langevinTemp to 90
TCL: Running for 100000 steps
ETITLE: TS BOND ANGLE DIHED IMPRP ELECT VDW BOUNDARY MISC KINETIC TOTAL TEMP POTENTIAL TOTAL3 TEMPAVG PRESSURE GPRESSURE VOLUME PRESSAVG GPRESSAVG
ENERGY: 200000 0.0000 0.0000 0.0000 0.0000 -13919.3378 2429.0183 0.0000 0.0000 335.8087 -11154.5108 58.5539 -11490.3195 -11153.8656 58.5539 266.1985 334.1000 28608.0803 266.1985 334.1000
ENERGY: 300000 0.0000 0.0000 0.0000 0.0000 -13898.1829 2493.9425 0.0000 0.0000 514.0295 -10890.2109 89.6297 -11404.2404 -10889.5585 89.9465 1125.7694 1192.5408 28514.0675 3.0269 3.2308
TCL: Running 100000 steps at 120 kelvin.
TCL: Setting parameter langevinTemp to 120
TCL: Running for 100000 steps
ETITLE: TS BOND ANGLE DIHED IMPRP ELECT VDW BOUNDARY MISC KINETIC TOTAL TEMP POTENTIAL TOTAL3 TEMPAVG PRESSURE GPRESSURE VOLUME PRESSAVG GPRESSAVG
ENERGY: 300000 0.0000 0.0000 0.0000 0.0000 -13898.1829 2493.9425 0.0000 0.0000 513.7771 -10890.4633 89.5857 -11404.2404 -10889.4217 89.5857 1141.6911 1192.1369 28514.0675 1141.6911 1192.1369
ENERGY: 400000 0.0000 0.0000 0.0000 0.0000 -13730.1654 2415.6937 0.0000 0.0000 697.4192 -10617.0525 121.6068 -11314.4718 -10615.6735 120.0748 922.7117 921.7176 28339.6383 5.0462 5.0626
TCL: Running 100000 steps at 150 kelvin.
TCL: Setting parameter langevinTemp to 150
TCL: Running for 100000 steps
ETITLE: TS BOND ANGLE DIHED IMPRP ELECT VDW BOUNDARY MISC KINETIC TOTAL TEMP POTENTIAL TOTAL3 TEMPAVG PRESSURE GPRESSURE VOLUME PRESSAVG GPRESSAVG
ENERGY: 400000 0.0000 0.0000 0.0000 0.0000 -13730.1654 2415.6937 0.0000 0.0000 697.0830 -10617.3888 121.5482 -11314.4718 -10616.0178 121.5482 874.8733 922.0654 28339.6383 874.8733 922.0654
ENERGY: 500000 0.0000 0.0000 0.0000 0.0000 -13342.0259 2237.8764 0.0000 0.0000 856.7707 -10247.3788 149.3925 -11104.1494 -10244.5293 150.1541 175.6276 213.1940 28262.6241 4.8594 4.7007
TCL: Running 100000 steps at 180 kelvin.
TCL: Setting parameter langevinTemp to 180
TCL: Running for 100000 steps
ETITLE: TS BOND ANGLE DIHED IMPRP ELECT VDW BOUNDARY MISC KINETIC TOTAL TEMP POTENTIAL TOTAL3 TEMPAVG PRESSURE GPRESSURE VOLUME PRESSAVG GPRESSAVG
ENERGY: 500000 0.0000 0.0000 0.0000 0.0000 -13342.0259 2237.8764 0.0000 0.0000 856.3260 -10247.8234 149.3149 -11104.1494 -10246.2191 149.3149 158.0899 213.3748 28262.6241 158.0899 213.3748
ENERGY: 600000 0.0000 0.0000 0.0000 0.0000 -12814.0396 2035.3751 0.0000 0.0000 1054.9421 -9723.7224 183.9470 -10778.6645 -9721.6969 179.5174 -339.7840 -276.5795 28637.0040 2.7830 2.6742
TCL: Running 100000 steps at 210 kelvin.
TCL: Setting parameter langevinTemp to 210
TCL: Running for 100000 steps
ETITLE: TS BOND ANGLE DIHED IMPRP ELECT VDW BOUNDARY MISC KINETIC TOTAL TEMP POTENTIAL TOTAL3 TEMPAVG PRESSURE GPRESSURE VOLUME PRESSAVG GPRESSAVG
ENERGY: 600000 0.0000 0.0000 0.0000 0.0000 -12814.0396 2035.3751 0.0000 0.0000 1054.4138 -9724.2507 183.8549 -10778.6645 -9721.7919 183.8549 -334.1092 -277.7986 28637.0040 -334.1092 -277.7986
ENERGY: 700000 0.0000 0.0000 0.0000 0.0000 -12300.4461 1967.1755 0.0000 0.0000 1202.1031 -9131.1675 209.6070 -10333.2706 -9128.0595 209.7558 994.0102 1040.6754 28306.0327 3.4279 3.4267
TCL: Running 100000 steps at 240 kelvin.
TCL: Setting parameter langevinTemp to 240
TCL: Running for 100000 steps
ETITLE: TS BOND ANGLE DIHED IMPRP ELECT VDW BOUNDARY MISC KINETIC TOTAL TEMP POTENTIAL TOTAL3 TEMPAVG PRESSURE GPRESSURE VOLUME PRESSAVG GPRESSAVG
ENERGY: 700000 0.0000 0.0000 0.0000 0.0000 -12300.4461 1967.1755 0.0000 0.0000 1201.5242 -9131.7464 209.5061 -10333.2706 -9130.0816 209.5061 962.6970 1041.7254 28306.0327 962.6970 1041.7254
ENERGY: 800000 0.0000 0.0000 0.0000 0.0000 -11609.3742 1764.2229 0.0000 0.0000 1344.0693 -8501.0820 234.3612 -9845.1514 -8498.3689 239.9537 706.8837 812.0464 28852.0053 4.0583 4.0413
TCL: Running 100000 steps at 270 kelvin.
TCL: Setting parameter langevinTemp to 270
TCL: Running for 100000 steps
ETITLE: TS BOND ANGLE DIHED IMPRP ELECT VDW BOUNDARY MISC KINETIC TOTAL TEMP POTENTIAL TOTAL3 TEMPAVG PRESSURE GPRESSURE VOLUME PRESSAVG GPRESSAVG
ENERGY: 800000 0.0000 0.0000 0.0000 0.0000 -11609.3742 1764.2229 0.0000 0.0000 1343.3783 -8501.7730 234.2407 -9845.1514 -8499.3695 234.2407 730.1215 811.8171 28852.0053 730.1215 811.8171
ENERGY: 900000 0.0000 0.0000 0.0000 0.0000 -11089.1320 1529.9895 0.0000 0.0000 1552.3084 -8006.8341 270.6712 -9559.1425 -8001.9643 269.7452 -186.8080 -108.7387 29067.8042 2.9008 2.9880
TCL: Running 1000000 steps at 300 kelvin.
TCL: Setting parameter langevinTemp to 300
TCL: Running for 1000000 steps
ETITLE: TS BOND ANGLE DIHED IMPRP ELECT VDW BOUNDARY MISC KINETIC TOTAL TEMP POTENTIAL TOTAL3 TEMPAVG PRESSURE GPRESSURE VOLUME PRESSAVG GPRESSAVG
ENERGY: 900000 0.0000 0.0000 0.0000 0.0000 -11089.1320 1529.9895 0.0000 0.0000 1551.5456 -8007.5969 270.5382 -9559.1425 -8004.7997 270.5382 -193.2918 -108.1606 29067.8042 -193.2918 -108.1606
ENERGY: 1100000 0.0000 0.0000 0.0000 0.0000 -10560.6295 1390.8500 0.0000 0.0000 1730.4050 -7439.3745 301.7254 -9169.7795 -7434.8788 299.8186 -356.7275 -239.0537 29900.4819 2.6459 2.5522
ENERGY: 1300000 0.0000 0.0000 0.0000 0.0000 -10398.9083 1346.9493 0.0000 0.0000 1733.2926 -7318.6664 302.2289 -9051.9590 -7315.7468 299.8857 -310.0065 -265.7148 30040.7824 4.6600 4.8620
ENERGY: 1500000 0.0000 0.0000 0.0000 0.0000 -10521.7741 1421.4406 0.0000 0.0000 1701.2663 -7399.0672 296.6445 -9100.3335 -7395.1841 299.5293 45.7781 134.9061 30175.8051 3.0387 3.0917
ENERGY: 1700000 0.0000 0.0000 0.0000 0.0000 -10450.5226 1385.8586 0.0000 0.0000 1667.2906 -7397.3734 290.7203 -9064.6640 -7398.5544 300.7661 -178.4108 -78.0355 29874.2181 2.9508 3.0773
ENERGY: 1900000 0.0000 0.0000 0.0000 0.0000 -10458.0596 1293.9954 0.0000 0.0000 1699.6999 -7464.3643 296.3714 -9164.0642 -7461.2118 300.2220 -1130.1091 -1055.6571 30049.2109 2.5438 2.5041
TCL: Exiting due to exit command.
