Info: SIMULATION PARAMETERS:
Info: TIMESTEP               2
Info: NUMBER OF STEPS        0
Info: STEPS PER CYCLE        10
Info: PERIODIC CELL BASIS 1  37.38 0 0
Info: PERIODIC CELL BASIS 2  0 34.26 0
Info: PERIODIC CELL BASIS 3  0 0 34.68
Info: PERIODIC CELL CENTER   0 0 0
Info: WRAPPING WATERS AROUND PERIODIC BOUNDARIES ON OUTPUT.
Info: WRAPPING ALL CLUSTERS AROUND PERIODIC BOUNDARIES ON OUTPUT.
Info: FIRST LDB TIMESTEP     50
Info: LAST LDB TIMESTEP     -1
Info: HOM BACKGROUND SCALING 1
Info: PME BACKGROUND SCALING 1
Info: MIN ATOMS PER PATCH    40
Info: EMPTY PATCH LOAD       40 ATOMS
Info: INITIAL TEMPERATURE    300
Info: CENTER OF MASS MOVING INITIALLY? NO
Info: DIELECTRIC             1
Info: EXCLUDE                SCALED ONE-FOUR
Info: 1-4 ELECTROSTATICS SCALED BY 0.833333
Info: MODIFIED 1-4 VDW PARAMETERS WILL BE USED
Info: DCD FILENAME           mobley_6911232_equil.dcd
Info: DCD FREQUENCY          100000
Info: DCD FIRST STEP         100000
Info: DCD FILE WILL CONTAIN UNIT CELL DATA
Info: XST FILENAME           mobley_6911232_equil.xst
Info: XST FREQUENCY          100000
Info: NO VELOCITY DCD OUTPUT
Info: NO FORCE DCD OUTPUT
Info: OUTPUT FILENAME        mobley_6911232_equil
Info: BINARY OUTPUT FILES WILL BE USED
Info: RESTART FILENAME       mobley_6911232_equil.restart
Info: RESTART FREQUENCY      100000
Info: BINARY RESTART FILES WILL BE USED
Info: CUTOFF                 9
Info: PAIRLIST DISTANCE      11
Info: PAIRLIST SHRINK RATE   0.01
Info: PAIRLIST GROW RATE     0.01
Info: PAIRLIST TRIGGER       0.3
Info: PAIRLISTS PER CYCLE    2
Info: PAIRLISTS ENABLED
Info: MARGIN                 8
Info: HYDROGEN GROUP CUTOFF  2.5
Info: PATCH DIMENSION        21.5
Info: ENERGY OUTPUT STEPS    100000
Info: ENERGY EVALUATION STEPS    100000
Info: OUTPUT ENERGY PRECISION 4
Info: CROSSTERM ENERGY INCLUDED IN DIHEDRAL
Info: TIMING OUTPUT STEPS    1000000
Info: PRESSURE OUTPUT STEPS  100000
Info: FIXED ATOMS ACTIVE
Info: LANGEVIN DYNAMICS ACTIVE
Info: LANGEVIN TEMPERATURE   30
Info: LANGEVIN USING BBK INTEGRATOR
Info: LANGEVIN DAMPING COEFFICIENT IS 1 INVERSE PS
Info: LANGEVIN DYNAMICS APPLIED TO HYDROGENS
Info: LANGEVIN PISTON PRESSURE CONTROL ACTIVE
Info:        TARGET PRESSURE IS 1.01325 BAR
Info:     OSCILLATION PERIOD IS 50 FS
Info:             DECAY TIME IS 25 FS
Info:     PISTON TEMPERATURE IS 300 K
Info:       PRESSURE CONTROL IS GROUP-BASED
Info:    INITIAL STRAIN RATE IS 0 0 0
Info:       CELL FLUCTUATION IS ISOTROPIC
Info: PARTICLE MESH EWALD (PME) ACTIVE
Info: PME TOLERANCE               1e-06
Info: PME EWALD COEFFICIENT       0.348832
Info: PME INTERPOLATION ORDER     4
Info: PME GRID DIMENSIONS         40 36 36
Info: PME MAXIMUM GRID SPACING    1
Info: FULL ELECTROSTATIC EVALUATION FREQUENCY      2
Info: USING VERLET I (r-RESPA) MTS SCHEME.
Info: C1 SPLITTING OF LONG RANGE ELECTROSTATICS
Info: PLACING ATOMS IN PATCHES BY HYDROGEN GROUPS
Info: RIGID BONDS TO HYDROGEN : ALL
Info:         ERROR TOLERANCE : 1e-08
Info:          MAX ITERATIONS : 100
Info: RIGID WATER USING SETTLE ALGORITHM
Info: RANDOM NUMBER SEED     1743900989
Info: USE HYDROGEN BONDS?    NO
Info: Using AMBER format force field!
Info: AMBER PARM FILE        mobley_6911232.prmtop
Info: COORDINATE PDB         mobley_6911232.pdb
Info: Exclusions will be read from PARM file!
Info: SCNB (VDW SCALING)     2
Info: USING ARITHMETIC MEAN TO COMBINE L-J SIGMA PARAMETERS
Info: BINARY COORDINATES     mobley_6911232_min.coor
Info: SUMMARY OF PARAMETERS:
Info: 6 BONDS
Info: 7 ANGLES
Info: 6 DIHEDRAL
Info: 0 IMPROPER
Info: 0 CROSSTERM
Info: 0 VDW
Info: 21 VDW_PAIRS
Info: 0 NBTHOLE_PAIRS
Info: STRUCTURE SUMMARY:
Info: 2991 ATOMS
Info: 2990 BONDS
Info: 19 ANGLES
Info: 19 DIHEDRALS
Info: 0 IMPROPERS
Info: 0 CROSSTERMS
Info: 3024 EXCLUSIONS
Info: 12 FIXED ATOMS
Info: 2987 RIGID BONDS
Info: 8 RIGID BONDS BETWEEN FIXED ATOMS
Info: 5958 DEGREES OF FREEDOM
Info: 997 HYDROGEN GROUPS
Info: 4 ATOMS IN LARGEST HYDROGEN GROUP
Info: 997 MIGRATION GROUPS
Info: 4 ATOMS IN LARGEST MIGRATION GROUP
Info: 4 HYDROGEN GROUPS WITH ALL ATOMS FIXED
Info: TOTAL MASS = 17950 amu
Info: TOTAL CHARGE = 0.000200026 e
Info: MASS DENSITY = 0.671147 g/cm^3
Info: ATOM DENSITY = 0.0673458 atoms/A^3
Info: ADDED 0 IMPLICIT EXCLUSIONS
Info: NONBONDED TABLE R-SQUARED SPACING: 0.0625
Info: NONBONDED TABLE SIZE: 705 POINTS
Info: REMOVING COM VELOCITY -0.067164 0.170401 -0.129063
TCL: Running for 100000 steps
ETITLE: TS BOND ANGLE DIHED IMPRP ELECT VDW BOUNDARY MISC KINETIC TOTAL TEMP POTENTIAL TOTAL3 TEMPAVG PRESSURE GPRESSURE VOLUME PRESSAVG GPRESSAVG
ENERGY: 0 0.0000 0.0000 0.0000 0.0000 -13800.6760 2371.7079 0.0000 0.0000 1763.1499 -9665.8182 297.8373 -11428.9681 -9665.4813 297.8373 47.1404 87.4435 44412.5536 47.1404 87.4435
ENERGY: 100000 0.0000 0.0000 0.0000 0.0000 -14290.7699 2447.5482 0.0000 0.0000 183.5593 -11659.6623 31.0075 -11843.2216 -11659.2985 30.8485 -434.9355 -382.9222 30221.4008 2.9475 2.9738
TCL: Running 100000 steps at 60 kelvin.
TCL: Setting parameter langevinTemp to 60
TCL: Running for 100000 steps
ETITLE: TS BOND ANGLE DIHED IMPRP ELECT VDW BOUNDARY MISC KINETIC TOTAL TEMP POTENTIAL TOTAL3 TEMPAVG PRESSURE GPRESSURE VOLUME PRESSAVG GPRESSAVG
ENERGY: 100000 0.0000 0.0000 0.0000 0.0000 -14290.7699 2447.5482 0.0000 0.0000 183.4695 -11659.7522 30.9923 -11843.2216 -11659.3818 30.9923 -450.4608 -382.8739 30221.4008 -450.4608 -382.8739
ENERGY: 200000 0.0000 0.0000 0.0000 0.0000 -14245.9352 2439.3721 0.0000 0.0000 352.4685 -11454.0946 59.5402 -11806.5631 -11453.1325 59.9546 -112.4919 -44.2821 29590.0245 3.5068 3.5006
TCL: Running 100000 steps at 90 kelvin.
TCL: Setting parameter langevinTemp to 90
TCL: Running for 100000 steps
ETITLE: TS BOND ANGLE DIHED IMPRP ELECT VDW BOUNDARY MISC KINETIC TOTAL TEMP POTENTIAL TOTAL3 TEMPAVG PRESSURE GPRESSURE VOLUME PRESSAVG GPRESSAVG
ENERGY: 200000 0.0000 0.0000 0.0000 0.0000 -14245.9352 2439.3721 0.0000 0.0000 352.2843 -11454.2789 59.5091 -11806.5631 -11453.5066 59.5091 -102.2807 -44.4311 29590.0245 -102.2807 -44.4311
ENERGY: 300000 0.0000 0.0000 0.0000 0.0000 -14089.1586 2383.6794 0.0000 0.0000 537.6397 -11167.8395 90.8199 -11705.4791 -11165.8749 89.8994 -230.3457 -143.0005 29472.0681 4.5792 4.6817
TCL: Running 100000 steps at 120 kelvin.
TCL: Setting parameter langevinTemp to 120
TCL: Running for 100000 steps
ETITLE: TS BOND ANGLE DIHED IMPRP ELECT VDW BOUNDARY MISC KINETIC TOTAL TEMP POTENTIAL TOTAL3 TEMPAVG PRESSURE GPRESSURE VOLUME PRESSAVG GPRESSAVG
ENERGY: 300000 0.0000 0.0000 0.0000 0.0000 -14089.1586 2383.6794 0.0000 0.0000 537.3669 -11168.1123 90.7739 -11705.4791 -11166.8804 90.7739 -196.9233 -142.9123 29472.0681 -196.9233 -142.9123
ENERGY: 400000 0.0000 0.0000 0.0000 0.0000 -14006.6798 2388.9467 0.0000 0.0000 714.9619 -10902.7713 120.7738 -11617.7331 -10900.1716 119.8780 149.5829 190.4134 29298.2931 3.1198 3.0960
TCL: Running 100000 steps at 150 kelvin.
TCL: Setting parameter langevinTemp to 150
TCL: Running for 100000 steps
ETITLE: TS BOND ANGLE DIHED IMPRP ELECT VDW BOUNDARY MISC KINETIC TOTAL TEMP POTENTIAL TOTAL3 TEMPAVG PRESSURE GPRESSURE VOLUME PRESSAVG GPRESSAVG
ENERGY: 400000 0.0000 0.0000 0.0000 0.0000 -14006.6798 2388.9467 0.0000 0.0000 714.6054 -10903.1277 120.7136 -11617.7331 -10901.4602 120.7136 139.6331 190.5273 29298.2931 139.6331 190.5273
ENERGY: 500000 0.0000 0.0000 0.0000 0.0000 -13776.8164 2318.6998 0.0000 0.0000 879.9868 -10578.1298 148.6504 -11458.1166 -10576.0630 150.1093 179.1324 247.9023 29332.7591 4.3908 4.3506
TCL: Running 100000 steps at 180 kelvin.
TCL: Setting parameter langevinTemp to 180
TCL: Running for 100000 steps
ETITLE: TS BOND ANGLE DIHED IMPRP ELECT VDW BOUNDARY MISC KINETIC TOTAL TEMP POTENTIAL TOTAL3 TEMPAVG PRESSURE GPRESSURE VOLUME PRESSAVG GPRESSAVG
ENERGY: 500000 0.0000 0.0000 0.0000 0.0000 -13776.8164 2318.6998 0.0000 0.0000 879.5527 -10578.5640 148.5771 -11458.1166 -10577.1575 148.5771 205.0010 248.6836 29332.7591 205.0010 248.6836
ENERGY: 600000 0.0000 0.0000 0.0000 0.0000 -13408.4748 2240.8941 0.0000 0.0000 1096.2603 -10071.3204 185.1840 -11167.5806 -10068.7394 180.0051 759.6037 807.4740 29141.0756 3.6468 3.7243
TCL: Running 100000 steps at 210 kelvin.
TCL: Setting parameter langevinTemp to 210
TCL: Running for 100000 steps
ETITLE: TS BOND ANGLE DIHED IMPRP ELECT VDW BOUNDARY MISC KINETIC TOTAL TEMP POTENTIAL TOTAL3 TEMPAVG PRESSURE GPRESSURE VOLUME PRESSAVG GPRESSAVG
ENERGY: 600000 0.0000 0.0000 0.0000 0.0000 -13408.4748 2240.8941 0.0000 0.0000 1095.7124 -10071.8683 185.0915 -11167.5806 -10070.1118 185.0915 739.6513 806.0188 29141.0756 739.6513 806.0188
ENERGY: 700000 0.0000 0.0000 0.0000 0.0000 -12642.8974 1940.1801 0.0000 0.0000 1242.5790 -9460.1382 209.9007 -10702.7172 -9456.7548 209.7847 -191.7955 -72.4534 29210.7521 2.7785 2.6437
TCL: Running 100000 steps at 240 kelvin.
TCL: Setting parameter langevinTemp to 240
TCL: Running for 100000 steps
ETITLE: TS BOND ANGLE DIHED IMPRP ELECT VDW BOUNDARY MISC KINETIC TOTAL TEMP POTENTIAL TOTAL3 TEMPAVG PRESSURE GPRESSURE VOLUME PRESSAVG GPRESSAVG
ENERGY: 700000 0.0000 0.0000 0.0000 0.0000 -12642.8974 1940.1801 0.0000 0.0000 1241.9408 -9460.7765 209.7929 -10702.7172 -9458.6952 209.7929 -149.2269 -71.4281 29210.7521 -149.2269 -71.4281
ENERGY: 800000 0.0000 0.0000 0.0000 0.0000 -11989.6046 1801.0759 0.0000 0.0000 1464.8989 -8723.6297 247.4557 -10188.5287 -8721.2877 239.8892 507.0972 532.0439 29620.8816 3.7707 3.7138
TCL: Running 100000 steps at 270 kelvin.
TCL: Setting parameter langevinTemp to 270
TCL: Running for 100000 steps
ETITLE: TS BOND ANGLE DIHED IMPRP ELECT VDW BOUNDARY MISC KINETIC TOTAL TEMP POTENTIAL TOTAL3 TEMPAVG PRESSURE GPRESSURE VOLUME PRESSAVG GPRESSAVG
ENERGY: 800000 0.0000 0.0000 0.0000 0.0000 -11989.6046 1801.0759 0.0000 0.0000 1464.2122 -8724.3165 247.3397 -10188.5287 -8721.5655 247.3397 455.4369 531.0888 29620.8816 455.4369 531.0888
ENERGY: 900000 0.0000 0.0000 0.0000 0.0000 -11445.7657 1637.5514 0.0000 0.0000 1605.6404 -8202.5739 271.2303 -9808.2143 -8198.6628 269.8055 258.4964 263.9574 30201.4549 4.3221 4.2955
TCL: Running 1000000 steps at 300 kelvin.
TCL: Setting parameter langevinTemp to 300
TCL: Running for 1000000 steps
ETITLE: TS BOND ANGLE DIHED IMPRP ELECT VDW BOUNDARY MISC KINETIC TOTAL TEMP POTENTIAL TOTAL3 TEMPAVG PRESSURE GPRESSURE VOLUME PRESSAVG GPRESSAVG
ENERGY: 900000 0.0000 0.0000 0.0000 0.0000 -11445.7657 1637.5514 0.0000 0.0000 1604.8499 -8203.3644 271.0967 -9808.2143 -8200.5298 271.0967 191.0626 264.8540 30201.4549 191.0626 264.8540
ENERGY: 1100000 0.0000 0.0000 0.0000 0.0000 -10573.1530 1291.0200 0.0000 0.0000 1771.2339 -7510.8992 299.2029 -9282.1330 -7506.6682 300.9498 -1182.3094 -1083.2406 31580.6735 3.0222 2.9979
ENERGY: 1300000 0.0000 0.0000 0.0000 0.0000 -10952.5572 1499.1425 0.0000 0.0000 1774.1274 -7679.2873 299.6917 -9453.4147 -7673.2665 300.5076 191.8733 251.8560 30692.1653 3.0274 2.8379
ENERGY: 1500000 0.0000 0.0000 0.0000 0.0000 -11008.0422 1550.1270 0.0000 0.0000 1836.2073 -7621.7079 310.1784 -9457.9152 -7618.6622 300.1111 961.9105 1041.0924 30261.5082 2.2955 2.3364
ENERGY: 1700000 0.0000 0.0000 0.0000 0.0000 -10838.8981 1473.9227 0.0000 0.0000 1796.8372 -7568.1382 303.5279 -9364.9754 -7566.8229 300.5589 -64.2158 12.2948 31232.2684 2.9950 2.9582
ENERGY: 1900000 0.0000 0.0000 0.0000 0.0000 -10825.3029 1469.9081 0.0000 0.0000 1763.0268 -7592.3680 297.8165 -9355.3948 -7590.2659 300.0584 212.6641 300.6861 30725.8156 2.8402 2.9353
TCL: Exiting due to exit command.
