Info: SIMULATION PARAMETERS:
Info: TIMESTEP               2
Info: NUMBER OF STEPS        0
Info: STEPS PER CYCLE        10
Info: PERIODIC CELL BASIS 1  35.01 0 0
Info: PERIODIC CELL BASIS 2  0 35.779 0
Info: PERIODIC CELL BASIS 3  0 0 34.954
Info: PERIODIC CELL CENTER   0 0 0
Info: WRAPPING WATERS AROUND PERIODIC BOUNDARIES ON OUTPUT.
Info: WRAPPING ALL CLUSTERS AROUND PERIODIC BOUNDARIES ON OUTPUT.
Info: FIRST LDB TIMESTEP     50
Info: LAST LDB TIMESTEP     -1
Info: HOM BACKGROUND SCALING 1
Info: PME BACKGROUND SCALING 1
Info: MIN ATOMS PER PATCH    40
Info: EMPTY PATCH LOAD       40 ATOMS
Info: INITIAL TEMPERATURE    300
Info: CENTER OF MASS MOVING INITIALLY? NO
Info: DIELECTRIC             1
Info: EXCLUDE                SCALED ONE-FOUR
Info: 1-4 ELECTROSTATICS SCALED BY 0.833333
Info: MODIFIED 1-4 VDW PARAMETERS WILL BE USED
Info: DCD FILENAME           mobley_1650157_equil.dcd
Info: DCD FREQUENCY          100000
Info: DCD FIRST STEP         100000
Info: DCD FILE WILL CONTAIN UNIT CELL DATA
Info: XST FILENAME           mobley_1650157_equil.xst
Info: XST FREQUENCY          100000
Info: NO VELOCITY DCD OUTPUT
Info: NO FORCE DCD OUTPUT
Info: OUTPUT FILENAME        mobley_1650157_equil
Info: BINARY OUTPUT FILES WILL BE USED
Info: RESTART FILENAME       mobley_1650157_equil.restart
Info: RESTART FREQUENCY      100000
Info: BINARY RESTART FILES WILL BE USED
Info: CUTOFF                 9
Info: PAIRLIST DISTANCE      11
Info: PAIRLIST SHRINK RATE   0.01
Info: PAIRLIST GROW RATE     0.01
Info: PAIRLIST TRIGGER       0.3
Info: PAIRLISTS PER CYCLE    2
Info: PAIRLISTS ENABLED
Info: MARGIN                 8
Info: HYDROGEN GROUP CUTOFF  2.5
Info: PATCH DIMENSION        21.5
Info: ENERGY OUTPUT STEPS    100000
Info: ENERGY EVALUATION STEPS    100000
Info: OUTPUT ENERGY PRECISION 4
Info: CROSSTERM ENERGY INCLUDED IN DIHEDRAL
Info: TIMING OUTPUT STEPS    1000000
Info: PRESSURE OUTPUT STEPS  100000
Info: FIXED ATOMS ACTIVE
Info: LANGEVIN DYNAMICS ACTIVE
Info: LANGEVIN TEMPERATURE   30
Info: LANGEVIN USING BBK INTEGRATOR
Info: LANGEVIN DAMPING COEFFICIENT IS 1 INVERSE PS
Info: LANGEVIN DYNAMICS APPLIED TO HYDROGENS
Info: LANGEVIN PISTON PRESSURE CONTROL ACTIVE
Info:        TARGET PRESSURE IS 1.01325 BAR
Info:     OSCILLATION PERIOD IS 50 FS
Info:             DECAY TIME IS 25 FS
Info:     PISTON TEMPERATURE IS 300 K
Info:       PRESSURE CONTROL IS GROUP-BASED
Info:    INITIAL STRAIN RATE IS 0 0 0
Info:       CELL FLUCTUATION IS ISOTROPIC
Info: PARTICLE MESH EWALD (PME) ACTIVE
Info: PME TOLERANCE               1e-06
Info: PME EWALD COEFFICIENT       0.348832
Info: PME INTERPOLATION ORDER     4
Info: PME GRID DIMENSIONS         36 36 36
Info: PME MAXIMUM GRID SPACING    1
Info: FULL ELECTROSTATIC EVALUATION FREQUENCY      2
Info: USING VERLET I (r-RESPA) MTS SCHEME.
Info: C1 SPLITTING OF LONG RANGE ELECTROSTATICS
Info: PLACING ATOMS IN PATCHES BY HYDROGEN GROUPS
Info: RIGID BONDS TO HYDROGEN : ALL
Info:         ERROR TOLERANCE : 1e-08
Info:          MAX ITERATIONS : 100
Info: RIGID WATER USING SETTLE ALGORITHM
Info: RANDOM NUMBER SEED     1743738909
Info: USE HYDROGEN BONDS?    NO
Info: Using AMBER format force field!
Info: AMBER PARM FILE        mobley_1650157.prmtop
Info: COORDINATE PDB         mobley_1650157.pdb
Info: Exclusions will be read from PARM file!
Info: SCNB (VDW SCALING)     2
Info: USING ARITHMETIC MEAN TO COMBINE L-J SIGMA PARAMETERS
Info: BINARY COORDINATES     mobley_1650157_min.coor
Info: SUMMARY OF PARAMETERS:
Info: 6 BONDS
Info: 5 ANGLES
Info:   5 HARMONIC
Info:   0 COSINE-BASED
Info: 3 DIHEDRAL
Info: 0 IMPROPER
Info: 0 CROSSTERM
Info: 0 VDW
Info: 15 VDW_PAIRS
Info: 0 NBTHOLE_PAIRS
Info: STRUCTURE SUMMARY:
Info: 2928 ATOMS
Info: 2927 BONDS
Info: 25 ANGLES
Info: 42 DIHEDRALS
Info: 0 IMPROPERS
Info: 0 CROSSTERMS
Info: 2982 EXCLUSIONS
Info: 15 FIXED ATOMS
Info: 2923 RIGID BONDS
Info: 10 RIGID BONDS BETWEEN FIXED ATOMS
Info: 5826 DEGREES OF FREEDOM
Info: 976 HYDROGEN GROUPS
Info: 4 ATOMS IN LARGEST HYDROGEN GROUP
Info: 976 MIGRATION GROUPS
Info: 4 ATOMS IN LARGEST MIGRATION GROUP
Info: 5 HYDROGEN GROUPS WITH ALL ATOMS FIXED
Info: TOTAL MASS = 17567.7 amu
Info: TOTAL CHARGE = 0.000100017 e
Info: MASS DENSITY = 0.666279 g/cm^3
Info: ATOM DENSITY = 0.0668735 atoms/A^3
Info: ADDED 0 IMPLICIT EXCLUSIONS
Info: NONBONDED TABLE R-SQUARED SPACING: 0.0625
Info: NONBONDED TABLE SIZE: 705 POINTS
Info: REMOVING COM VELOCITY -0.151396 -0.0230353 -0.0827213
TCL: Running for 100000 steps
ETITLE: TS BOND ANGLE DIHED IMPRP ELECT VDW BOUNDARY MISC KINETIC TOTAL TEMP POTENTIAL TOTAL3 TEMPAVG PRESSURE GPRESSURE VOLUME PRESSAVG GPRESSAVG
ENERGY: 0 0.0000 0.0000 0.0000 0.0000 -13678.9181 2402.6891 0.0000 0.0000 1727.6876 -9548.5414 298.4593 -11276.2290 -9548.2164 298.4593 428.4234 458.6481 43784.1770 428.4234 458.6481
ENERGY: 100000 0.0000 0.0000 0.0000 0.0000 -14189.9159 2498.5392 0.0000 0.0000 171.1240 -11520.2527 29.5618 -11691.3767 -11519.6481 30.9498 217.5855 284.8624 28628.0174 5.2970 5.3222
TCL: Running 100000 steps at 60 kelvin.
TCL: Setting parameter langevinTemp to 60
TCL: Running for 100000 steps
ETITLE: TS BOND ANGLE DIHED IMPRP ELECT VDW BOUNDARY MISC KINETIC TOTAL TEMP POTENTIAL TOTAL3 TEMPAVG PRESSURE GPRESSURE VOLUME PRESSAVG GPRESSAVG
ENERGY: 100000 0.0000 0.0000 0.0000 0.0000 -14189.9159 2498.5392 0.0000 0.0000 171.0395 -11520.3372 29.5472 -11691.3767 -11520.0025 29.5472 225.8672 285.2606 28628.0174 225.8672 285.2606
ENERGY: 200000 0.0000 0.0000 0.0000 0.0000 -14176.6341 2561.5858 0.0000 0.0000 359.5953 -11255.4530 62.1203 -11615.0483 -11254.5404 59.9354 1281.1858 1305.9117 28392.1593 3.3347 3.3282
TCL: Running 100000 steps at 90 kelvin.
TCL: Setting parameter langevinTemp to 90
TCL: Running for 100000 steps
ETITLE: TS BOND ANGLE DIHED IMPRP ELECT VDW BOUNDARY MISC KINETIC TOTAL TEMP POTENTIAL TOTAL3 TEMPAVG PRESSURE GPRESSURE VOLUME PRESSAVG GPRESSAVG
ENERGY: 200000 0.0000 0.0000 0.0000 0.0000 -14176.6341 2561.5858 0.0000 0.0000 359.4199 -11255.6283 62.0901 -11615.0483 -11254.8463 62.0901 1253.2944 1305.7692 28392.1593 1253.2944 1305.7692
ENERGY: 300000 0.0000 0.0000 0.0000 0.0000 -14008.2611 2495.5486 0.0000 0.0000 527.0933 -10985.6192 91.0558 -11512.7125 -10984.8510 90.1134 800.2082 836.4590 28883.4367 3.4151 3.4290
TCL: Running 100000 steps at 120 kelvin.
TCL: Setting parameter langevinTemp to 120
TCL: Running for 100000 steps
ETITLE: TS BOND ANGLE DIHED IMPRP ELECT VDW BOUNDARY MISC KINETIC TOTAL TEMP POTENTIAL TOTAL3 TEMPAVG PRESSURE GPRESSURE VOLUME PRESSAVG GPRESSAVG
ENERGY: 300000 0.0000 0.0000 0.0000 0.0000 -14008.2611 2495.5486 0.0000 0.0000 526.8361 -10985.8764 91.0113 -11512.7125 -10984.9190 91.0113 777.3460 835.9632 28883.4367 777.3460 835.9632
ENERGY: 400000 0.0000 0.0000 0.0000 0.0000 -13831.6689 2424.8645 0.0000 0.0000 689.3091 -10717.4952 119.0787 -11406.8043 -10715.9123 119.8585 662.0676 724.3338 28748.5006 2.8830 2.9654
TCL: Running 100000 steps at 150 kelvin.
TCL: Setting parameter langevinTemp to 150
TCL: Running for 100000 steps
ETITLE: TS BOND ANGLE DIHED IMPRP ELECT VDW BOUNDARY MISC KINETIC TOTAL TEMP POTENTIAL TOTAL3 TEMPAVG PRESSURE GPRESSURE VOLUME PRESSAVG GPRESSAVG
ENERGY: 400000 0.0000 0.0000 0.0000 0.0000 -13831.6689 2424.8645 0.0000 0.0000 688.9678 -10717.8366 119.0197 -11406.8043 -10716.4023 119.0197 667.6731 723.1207 28748.5006 667.6731 723.1207
ENERGY: 500000 0.0000 0.0000 0.0000 0.0000 -13410.8183 2182.5312 0.0000 0.0000 852.2286 -10376.0584 147.2231 -11228.2870 -10374.3434 149.8754 -618.2678 -579.0000 28856.0288 4.6126 4.4878
TCL: Running 100000 steps at 180 kelvin.
TCL: Setting parameter langevinTemp to 180
TCL: Running for 100000 steps
ETITLE: TS BOND ANGLE DIHED IMPRP ELECT VDW BOUNDARY MISC KINETIC TOTAL TEMP POTENTIAL TOTAL3 TEMPAVG PRESSURE GPRESSURE VOLUME PRESSAVG GPRESSAVG
ENERGY: 500000 0.0000 0.0000 0.0000 0.0000 -13410.8183 2182.5312 0.0000 0.0000 851.7947 -10376.4923 147.1482 -11228.2870 -10374.6822 147.1482 -624.7015 -580.1606 28856.0288 -624.7015 -580.1606
ENERGY: 600000 0.0000 0.0000 0.0000 0.0000 -13037.1170 2063.0488 0.0000 0.0000 1061.4158 -9912.6524 183.3604 -10974.0682 -9909.5091 179.7235 -697.1639 -573.7721 28957.1166 3.7115 3.8417
TCL: Running 100000 steps at 210 kelvin.
TCL: Setting parameter langevinTemp to 210
TCL: Running for 100000 steps
ETITLE: TS BOND ANGLE DIHED IMPRP ELECT VDW BOUNDARY MISC KINETIC TOTAL TEMP POTENTIAL TOTAL3 TEMPAVG PRESSURE GPRESSURE VOLUME PRESSAVG GPRESSAVG
ENERGY: 600000 0.0000 0.0000 0.0000 0.0000 -13037.1170 2063.0488 0.0000 0.0000 1060.8899 -9913.1783 183.2695 -10974.0682 -9910.8815 183.2695 -642.1789 -572.5812 28957.1166 -642.1789 -572.5812
ENERGY: 700000 0.0000 0.0000 0.0000 0.0000 -12307.3658 1873.4181 0.0000 0.0000 1240.8339 -9193.1139 214.3550 -10433.9478 -9189.7736 210.2660 291.7006 379.6015 28097.7046 2.9911 2.9093
TCL: Running 100000 steps at 240 kelvin.
TCL: Setting parameter langevinTemp to 240
TCL: Running for 100000 steps
ETITLE: TS BOND ANGLE DIHED IMPRP ELECT VDW BOUNDARY MISC KINETIC TOTAL TEMP POTENTIAL TOTAL3 TEMPAVG PRESSURE GPRESSURE VOLUME PRESSAVG GPRESSAVG
ENERGY: 700000 0.0000 0.0000 0.0000 0.0000 -12307.3658 1873.4181 0.0000 0.0000 1240.2501 -9193.6976 214.2541 -10433.9478 -9191.6968 214.2541 305.1303 379.8296 28097.7046 305.1303 379.8296
ENERGY: 800000 0.0000 0.0000 0.0000 0.0000 -11779.8183 1716.9239 0.0000 0.0000 1401.1636 -8661.7307 242.0520 -10062.8944 -8659.5802 239.2568 19.0034 129.1020 28679.1909 3.2171 3.3750
TCL: Running 100000 steps at 270 kelvin.
TCL: Setting parameter langevinTemp to 270
TCL: Running for 100000 steps
ETITLE: TS BOND ANGLE DIHED IMPRP ELECT VDW BOUNDARY MISC KINETIC TOTAL TEMP POTENTIAL TOTAL3 TEMPAVG PRESSURE GPRESSURE VOLUME PRESSAVG GPRESSAVG
ENERGY: 800000 0.0000 0.0000 0.0000 0.0000 -11779.8183 1716.9239 0.0000 0.0000 1400.4790 -8662.4154 241.9338 -10062.8944 -8660.8181 241.9338 43.5232 130.0710 28679.1909 43.5232 130.0710
ENERGY: 900000 0.0000 0.0000 0.0000 0.0000 -11193.3765 1580.6526 0.0000 0.0000 1551.4791 -8061.2447 268.0192 -9612.7238 -8055.9543 269.7882 208.1858 305.6844 29107.8872 3.2550 3.0722
TCL: Running 1000000 steps at 300 kelvin.
TCL: Setting parameter langevinTemp to 300
TCL: Running for 1000000 steps
ETITLE: TS BOND ANGLE DIHED IMPRP ELECT VDW BOUNDARY MISC KINETIC TOTAL TEMP POTENTIAL TOTAL3 TEMPAVG PRESSURE GPRESSURE VOLUME PRESSAVG GPRESSAVG
ENERGY: 900000 0.0000 0.0000 0.0000 0.0000 -11193.3765 1580.6526 0.0000 0.0000 1550.7087 -8062.0151 267.8861 -9612.7238 -8059.8487 267.8861 219.2642 306.0213 29107.8872 219.2642 306.0213
ENERGY: 1100000 0.0000 0.0000 0.0000 0.0000 -10654.4527 1369.3362 0.0000 0.0000 1713.3861 -7571.7305 295.9887 -9285.1166 -7565.8006 299.6860 -695.4602 -566.6198 29945.4756 2.9408 2.7520
ENERGY: 1300000 0.0000 0.0000 0.0000 0.0000 -10699.7220 1471.8225 0.0000 0.0000 1687.2401 -7540.6593 291.4720 -9227.8995 -7537.5095 300.6389 339.7590 487.7022 29996.8509 2.8114 2.8314
ENERGY: 1500000 0.0000 0.0000 0.0000 0.0000 -10559.3178 1396.7860 0.0000 0.0000 1771.0411 -7391.4908 305.9486 -9162.5319 -7389.2013 300.3961 -200.1791 -106.0803 30411.0091 3.3914 3.3885
ENERGY: 1700000 0.0000 0.0000 0.0000 0.0000 -10492.8769 1357.9209 0.0000 0.0000 1738.8546 -7396.1014 300.3884 -9134.9560 -7390.8952 299.9408 -483.5595 -300.9139 30608.5548 3.1528 3.0901
ENERGY: 1900000 0.0000 0.0000 0.0000 0.0000 -10810.9842 1481.8969 0.0000 0.0000 1717.4473 -7611.6400 296.6903 -9329.0873 -7606.9064 300.0500 297.5685 329.9836 29790.2675 3.6485 3.6266
TCL: Exiting due to exit command.
