Info: SIMULATION PARAMETERS:
Info: TIMESTEP               2
Info: NUMBER OF STEPS        0
Info: STEPS PER CYCLE        10
Info: PERIODIC CELL BASIS 1  35.89 0 0
Info: PERIODIC CELL BASIS 2  0 35.779 0
Info: PERIODIC CELL BASIS 3  0 0 34.471
Info: PERIODIC CELL CENTER   0 0 0
Info: WRAPPING WATERS AROUND PERIODIC BOUNDARIES ON OUTPUT.
Info: WRAPPING ALL CLUSTERS AROUND PERIODIC BOUNDARIES ON OUTPUT.
Info: FIRST LDB TIMESTEP     50
Info: LAST LDB TIMESTEP     -1
Info: HOM BACKGROUND SCALING 1
Info: PME BACKGROUND SCALING 1
Info: MIN ATOMS PER PATCH    40
Info: EMPTY PATCH LOAD       40 ATOMS
Info: INITIAL TEMPERATURE    300
Info: CENTER OF MASS MOVING INITIALLY? NO
Info: DIELECTRIC             1
Info: EXCLUDE                SCALED ONE-FOUR
Info: 1-4 ELECTROSTATICS SCALED BY 0.833333
Info: MODIFIED 1-4 VDW PARAMETERS WILL BE USED
Info: DCD FILENAME           mobley_1231151_equil.dcd
Info: DCD FREQUENCY          100000
Info: DCD FIRST STEP         100000
Info: DCD FILE WILL CONTAIN UNIT CELL DATA
Info: XST FILENAME           mobley_1231151_equil.xst
Info: XST FREQUENCY          100000
Info: NO VELOCITY DCD OUTPUT
Info: NO FORCE DCD OUTPUT
Info: OUTPUT FILENAME        mobley_1231151_equil
Info: BINARY OUTPUT FILES WILL BE USED
Info: RESTART FILENAME       mobley_1231151_equil.restart
Info: RESTART FREQUENCY      100000
Info: BINARY RESTART FILES WILL BE USED
Info: CUTOFF                 9
Info: PAIRLIST DISTANCE      11
Info: PAIRLIST SHRINK RATE   0.01
Info: PAIRLIST GROW RATE     0.01
Info: PAIRLIST TRIGGER       0.3
Info: PAIRLISTS PER CYCLE    2
Info: PAIRLISTS ENABLED
Info: MARGIN                 8
Info: HYDROGEN GROUP CUTOFF  2.5
Info: PATCH DIMENSION        21.5
Info: ENERGY OUTPUT STEPS    100000
Info: ENERGY EVALUATION STEPS    100000
Info: OUTPUT ENERGY PRECISION 4
Info: CROSSTERM ENERGY INCLUDED IN DIHEDRAL
Info: TIMING OUTPUT STEPS    1000000
Info: PRESSURE OUTPUT STEPS  100000
Info: FIXED ATOMS ACTIVE
Info: LANGEVIN DYNAMICS ACTIVE
Info: LANGEVIN TEMPERATURE   30
Info: LANGEVIN USING BBK INTEGRATOR
Info: LANGEVIN DAMPING COEFFICIENT IS 1 INVERSE PS
Info: LANGEVIN DYNAMICS APPLIED TO HYDROGENS
Info: LANGEVIN PISTON PRESSURE CONTROL ACTIVE
Info:        TARGET PRESSURE IS 1.01325 BAR
Info:     OSCILLATION PERIOD IS 50 FS
Info:             DECAY TIME IS 25 FS
Info:     PISTON TEMPERATURE IS 300 K
Info:       PRESSURE CONTROL IS GROUP-BASED
Info:    INITIAL STRAIN RATE IS 0 0 0
Info:       CELL FLUCTUATION IS ISOTROPIC
Info: PARTICLE MESH EWALD (PME) ACTIVE
Info: PME TOLERANCE               1e-06
Info: PME EWALD COEFFICIENT       0.348832
Info: PME INTERPOLATION ORDER     4
Info: PME GRID DIMENSIONS         36 36 36
Info: PME MAXIMUM GRID SPACING    1
Info: FULL ELECTROSTATIC EVALUATION FREQUENCY      2
Info: USING VERLET I (r-RESPA) MTS SCHEME.
Info: C1 SPLITTING OF LONG RANGE ELECTROSTATICS
Info: PLACING ATOMS IN PATCHES BY HYDROGEN GROUPS
Info: RIGID BONDS TO HYDROGEN : ALL
Info:         ERROR TOLERANCE : 1e-08
Info:          MAX ITERATIONS : 100
Info: RIGID WATER USING SETTLE ALGORITHM
Info: RANDOM NUMBER SEED     1744676232
Info: USE HYDROGEN BONDS?    NO
Info: Using AMBER format force field!
Info: AMBER PARM FILE        mobley_1231151.prmtop
Info: COORDINATE PDB         mobley_1231151.pdb
Info: Exclusions will be read from PARM file!
Info: SCNB (VDW SCALING)     2
Info: USING ARITHMETIC MEAN TO COMBINE L-J SIGMA PARAMETERS
Info: BINARY COORDINATES     mobley_1231151_min.coor
Info: SUMMARY OF PARAMETERS:
Info: 6 BONDS
Info: 6 ANGLES
Info:   6 HARMONIC
Info:   0 COSINE-BASED
Info: 4 DIHEDRAL
Info: 0 IMPROPER
Info: 0 CROSSTERM
Info: 0 VDW
Info: 21 VDW_PAIRS
Info: 0 NBTHOLE_PAIRS
Info: STRUCTURE SUMMARY:
Info: 2906 ATOMS
Info: 2905 BONDS
Info: 18 ANGLES
Info: 24 DIHEDRALS
Info: 0 IMPROPERS
Info: 0 CROSSTERMS
Info: 2941 EXCLUSIONS
Info: 11 FIXED ATOMS
Info: 2902 RIGID BONDS
Info: 7 RIGID BONDS BETWEEN FIXED ATOMS
Info: 5790 DEGREES OF FREEDOM
Info: 969 HYDROGEN GROUPS
Info: 4 ATOMS IN LARGEST HYDROGEN GROUP
Info: 969 MIGRATION GROUPS
Info: 4 ATOMS IN LARGEST MIGRATION GROUP
Info: 4 HYDROGEN GROUPS WITH ALL ATOMS FIXED
Info: TOTAL MASS = 17464 amu
Info: TOTAL CHARGE = 0.000199996 e
Info: MASS DENSITY = 0.655159 g/cm^3
Info: ATOM DENSITY = 0.0656508 atoms/A^3
Info: ADDED 0 IMPLICIT EXCLUSIONS
Info: NONBONDED TABLE R-SQUARED SPACING: 0.0625
Info: NONBONDED TABLE SIZE: 705 POINTS
Info: REMOVING COM VELOCITY 0.0544699 0.0475393 -0.0966275
TCL: Running for 100000 steps
ETITLE: TS BOND ANGLE DIHED IMPRP ELECT VDW BOUNDARY MISC KINETIC TOTAL TEMP POTENTIAL TOTAL3 TEMPAVG PRESSURE GPRESSURE VOLUME PRESSAVG GPRESSAVG
ENERGY: 0 0.0000 0.0000 0.0000 0.0000 -13454.3818 2384.1552 0.0000 0.0000 1738.2663 -9331.9603 302.1538 -11070.2266 -9331.5995 302.1538 552.2437 587.5057 44264.4976 552.2437 587.5057
ENERGY: 100000 0.0000 0.0000 0.0000 0.0000 -14045.9165 2449.4028 0.0000 0.0000 172.9765 -11423.5373 30.0676 -11596.5137 -11423.1988 30.9846 148.1868 199.0441 28334.9950 4.2645 4.2202
TCL: Running 100000 steps at 60 kelvin.
TCL: Setting parameter langevinTemp to 60
TCL: Running for 100000 steps
ETITLE: TS BOND ANGLE DIHED IMPRP ELECT VDW BOUNDARY MISC KINETIC TOTAL TEMP POTENTIAL TOTAL3 TEMPAVG PRESSURE GPRESSURE VOLUME PRESSAVG GPRESSAVG
ENERGY: 100000 0.0000 0.0000 0.0000 0.0000 -14045.9165 2449.4028 0.0000 0.0000 172.8914 -11423.6224 30.0528 -11596.5137 -11423.2052 30.0528 143.5788 199.1363 28334.9950 143.5788 199.1363
ENERGY: 200000 0.0000 0.0000 0.0000 0.0000 -13907.0919 2411.5934 0.0000 0.0000 355.7694 -11139.7291 61.8416 -11495.4985 -11139.0333 59.8874 100.7282 170.1081 28769.5752 3.9372 3.9743
TCL: Running 100000 steps at 90 kelvin.
TCL: Setting parameter langevinTemp to 90
TCL: Running for 100000 steps
ETITLE: TS BOND ANGLE DIHED IMPRP ELECT VDW BOUNDARY MISC KINETIC TOTAL TEMP POTENTIAL TOTAL3 TEMPAVG PRESSURE GPRESSURE VOLUME PRESSAVG GPRESSAVG
ENERGY: 200000 0.0000 0.0000 0.0000 0.0000 -13907.0919 2411.5934 0.0000 0.0000 355.5988 -11139.8996 61.8119 -11495.4985 -11139.0974 61.8119 115.8400 169.5036 28769.5752 115.8400 169.5036
ENERGY: 300000 0.0000 0.0000 0.0000 0.0000 -13779.1694 2342.4742 0.0000 0.0000 513.6887 -10923.0065 89.2919 -11436.6952 -10921.1226 89.8506 -250.5349 -221.3092 28754.0218 5.2722 5.2796
TCL: Running 100000 steps at 120 kelvin.
TCL: Setting parameter langevinTemp to 120
TCL: Running for 100000 steps
ETITLE: TS BOND ANGLE DIHED IMPRP ELECT VDW BOUNDARY MISC KINETIC TOTAL TEMP POTENTIAL TOTAL3 TEMPAVG PRESSURE GPRESSURE VOLUME PRESSAVG GPRESSAVG
ENERGY: 300000 0.0000 0.0000 0.0000 0.0000 -13779.1694 2342.4742 0.0000 0.0000 513.4317 -10923.2635 89.2472 -11436.6952 -10922.1407 89.2472 -281.5239 -220.7056 28754.0218 -281.5239 -220.7056
ENERGY: 400000 0.0000 0.0000 0.0000 0.0000 -13417.1108 2131.3090 0.0000 0.0000 676.1126 -10609.6892 117.5252 -11285.8018 -10608.8355 120.1653 -1571.9506 -1492.3095 29044.1665 4.3314 4.2893
TCL: Running 100000 steps at 150 kelvin.
TCL: Setting parameter langevinTemp to 150
TCL: Running for 100000 steps
ETITLE: TS BOND ANGLE DIHED IMPRP ELECT VDW BOUNDARY MISC KINETIC TOTAL TEMP POTENTIAL TOTAL3 TEMPAVG PRESSURE GPRESSURE VOLUME PRESSAVG GPRESSAVG
ENERGY: 400000 0.0000 0.0000 0.0000 0.0000 -13417.1108 2131.3090 0.0000 0.0000 675.7627 -10610.0391 117.4643 -11285.8018 -10608.3342 117.4643 -1553.5789 -1492.9403 29044.1665 -1553.5789 -1492.9403
ENERGY: 500000 0.0000 0.0000 0.0000 0.0000 -13307.4796 2198.6763 0.0000 0.0000 893.4805 -10215.3228 155.3091 -11108.8033 -10212.9167 149.8564 -21.4078 84.7095 28456.0252 3.7919 3.6764
TCL: Running 100000 steps at 180 kelvin.
TCL: Setting parameter langevinTemp to 180
TCL: Running for 100000 steps
ETITLE: TS BOND ANGLE DIHED IMPRP ELECT VDW BOUNDARY MISC KINETIC TOTAL TEMP POTENTIAL TOTAL3 TEMPAVG PRESSURE GPRESSURE VOLUME PRESSAVG GPRESSAVG
ENERGY: 500000 0.0000 0.0000 0.0000 0.0000 -13307.4796 2198.6763 0.0000 0.0000 893.0583 -10215.7450 155.2357 -11108.8033 -10214.1506 155.2357 8.3732 84.7377 28456.0252 8.3732 84.7377
ENERGY: 600000 0.0000 0.0000 0.0000 0.0000 -12912.1830 2044.5927 0.0000 0.0000 1051.2798 -9816.3104 182.7385 -10867.5902 -9814.8241 179.7936 -351.1010 -300.7540 28368.4140 4.4243 4.5041
TCL: Running 100000 steps at 210 kelvin.
TCL: Setting parameter langevinTemp to 210
TCL: Running for 100000 steps
ETITLE: TS BOND ANGLE DIHED IMPRP ELECT VDW BOUNDARY MISC KINETIC TOTAL TEMP POTENTIAL TOTAL3 TEMPAVG PRESSURE GPRESSURE VOLUME PRESSAVG GPRESSAVG
ENERGY: 600000 0.0000 0.0000 0.0000 0.0000 -12912.1830 2044.5927 0.0000 0.0000 1050.7633 -9816.8269 182.6488 -10867.5902 -9814.9292 182.6488 -351.2019 -302.2191 28368.4140 -351.2019 -302.2191
ENERGY: 700000 0.0000 0.0000 0.0000 0.0000 -12160.0833 1822.9045 0.0000 0.0000 1201.7071 -9135.4717 208.8865 -10337.1788 -9133.1336 209.9968 -461.1628 -400.5581 28674.3270 4.3795 4.4136
TCL: Running 100000 steps at 240 kelvin.
TCL: Setting parameter langevinTemp to 240
TCL: Running for 100000 steps
ETITLE: TS BOND ANGLE DIHED IMPRP ELECT VDW BOUNDARY MISC KINETIC TOTAL TEMP POTENTIAL TOTAL3 TEMPAVG PRESSURE GPRESSURE VOLUME PRESSAVG GPRESSAVG
ENERGY: 700000 0.0000 0.0000 0.0000 0.0000 -12160.0833 1822.9045 0.0000 0.0000 1201.0636 -9136.1152 208.7747 -10337.1788 -9133.5418 208.7747 -476.7472 -400.7926 28674.3270 -476.7472 -400.7926
ENERGY: 800000 0.0000 0.0000 0.0000 0.0000 -11658.1188 1698.4501 0.0000 0.0000 1393.2458 -8566.4229 242.1807 -9959.6687 -8562.9751 240.1526 10.4973 115.8008 28406.4061 2.0258 1.9395
TCL: Running 100000 steps at 270 kelvin.
TCL: Setting parameter langevinTemp to 270
TCL: Running for 100000 steps
ETITLE: TS BOND ANGLE DIHED IMPRP ELECT VDW BOUNDARY MISC KINETIC TOTAL TEMP POTENTIAL TOTAL3 TEMPAVG PRESSURE GPRESSURE VOLUME PRESSAVG GPRESSAVG
ENERGY: 800000 0.0000 0.0000 0.0000 0.0000 -11658.1188 1698.4501 0.0000 0.0000 1392.5580 -8567.1107 242.0612 -9959.6687 -8564.6349 242.0612 20.4831 115.6803 28406.4061 20.4831 115.6803
ENERGY: 900000 0.0000 0.0000 0.0000 0.0000 -11247.8729 1640.0890 0.0000 0.0000 1554.3288 -8053.4551 270.1809 -9607.7839 -8051.7137 270.0578 622.6874 691.7706 28751.1640 3.8330 3.9116
TCL: Running 1000000 steps at 300 kelvin.
TCL: Setting parameter langevinTemp to 300
TCL: Running for 1000000 steps
ETITLE: TS BOND ANGLE DIHED IMPRP ELECT VDW BOUNDARY MISC KINETIC TOTAL TEMP POTENTIAL TOTAL3 TEMPAVG PRESSURE GPRESSURE VOLUME PRESSAVG GPRESSAVG
ENERGY: 900000 0.0000 0.0000 0.0000 0.0000 -11247.8729 1640.0890 0.0000 0.0000 1553.5599 -8054.2240 270.0473 -9607.7839 -8052.2710 270.0473 610.3081 690.6914 28751.1640 610.3081 690.6914
ENERGY: 1100000 0.0000 0.0000 0.0000 0.0000 -10360.6538 1314.4381 0.0000 0.0000 1693.3221 -7352.8936 294.3414 -9046.2157 -7350.6064 299.8962 -525.4440 -444.5062 29700.3705 3.9704 4.0368
ENERGY: 1300000 0.0000 0.0000 0.0000 0.0000 -10558.1221 1402.5933 0.0000 0.0000 1743.0912 -7412.4376 302.9925 -9155.5288 -7408.6510 300.5986 -257.4717 -190.8418 30035.6868 2.0885 2.0518
ENERGY: 1500000 0.0000 0.0000 0.0000 0.0000 -10544.1174 1442.8870 0.0000 0.0000 1686.0513 -7415.1790 293.0776 -9101.2303 -7410.2828 300.5624 68.0969 163.5467 30179.9043 2.3203 2.4073
ENERGY: 1700000 0.0000 0.0000 0.0000 0.0000 -10589.4163 1483.6786 0.0000 0.0000 1711.4696 -7394.2680 297.4959 -9105.7377 -7390.3964 299.6425 644.8692 707.9506 29941.1933 3.7415 3.7482
ENERGY: 1900000 0.0000 0.0000 0.0000 0.0000 -10554.0268 1419.2431 0.0000 0.0000 1774.0638 -7360.7198 308.3763 -9134.7836 -7356.6958 300.3894 103.5620 246.3355 29619.4022 3.9199 3.9799
TCL: Exiting due to exit command.
