Info: SIMULATION PARAMETERS:
Info: TIMESTEP               2
Info: NUMBER OF STEPS        0
Info: STEPS PER CYCLE        10
Info: PERIODIC CELL BASIS 1  37.435 0 0
Info: PERIODIC CELL BASIS 2  0 36.451 0
Info: PERIODIC CELL BASIS 3  0 0 33.088
Info: PERIODIC CELL CENTER   0 0 0
Info: WRAPPING WATERS AROUND PERIODIC BOUNDARIES ON OUTPUT.
Info: WRAPPING ALL CLUSTERS AROUND PERIODIC BOUNDARIES ON OUTPUT.
Info: FIRST LDB TIMESTEP     50
Info: LAST LDB TIMESTEP     -1
Info: HOM BACKGROUND SCALING 1
Info: PME BACKGROUND SCALING 1
Info: MIN ATOMS PER PATCH    40
Info: EMPTY PATCH LOAD       40 ATOMS
Info: INITIAL TEMPERATURE    300
Info: CENTER OF MASS MOVING INITIALLY? NO
Info: DIELECTRIC             1
Info: EXCLUDE                SCALED ONE-FOUR
Info: 1-4 ELECTROSTATICS SCALED BY 0.833333
Info: MODIFIED 1-4 VDW PARAMETERS WILL BE USED
Info: DCD FILENAME           mobley_4483973_equil.dcd
Info: DCD FREQUENCY          100000
Info: DCD FIRST STEP         100000
Info: DCD FILE WILL CONTAIN UNIT CELL DATA
Info: XST FILENAME           mobley_4483973_equil.xst
Info: XST FREQUENCY          100000
Info: NO VELOCITY DCD OUTPUT
Info: NO FORCE DCD OUTPUT
Info: OUTPUT FILENAME        mobley_4483973_equil
Info: BINARY OUTPUT FILES WILL BE USED
Info: RESTART FILENAME       mobley_4483973_equil.restart
Info: RESTART FREQUENCY      100000
Info: BINARY RESTART FILES WILL BE USED
Info: CUTOFF                 9
Info: PAIRLIST DISTANCE      11
Info: PAIRLIST SHRINK RATE   0.01
Info: PAIRLIST GROW RATE     0.01
Info: PAIRLIST TRIGGER       0.3
Info: PAIRLISTS PER CYCLE    2
Info: PAIRLISTS ENABLED
Info: MARGIN                 8
Info: HYDROGEN GROUP CUTOFF  2.5
Info: PATCH DIMENSION        21.5
Info: ENERGY OUTPUT STEPS    100000
Info: ENERGY EVALUATION STEPS    100000
Info: OUTPUT ENERGY PRECISION 4
Info: CROSSTERM ENERGY INCLUDED IN DIHEDRAL
Info: TIMING OUTPUT STEPS    1000000
Info: PRESSURE OUTPUT STEPS  100000
Info: FIXED ATOMS ACTIVE
Info: LANGEVIN DYNAMICS ACTIVE
Info: LANGEVIN TEMPERATURE   30
Info: LANGEVIN USING BBK INTEGRATOR
Info: LANGEVIN DAMPING COEFFICIENT IS 1 INVERSE PS
Info: LANGEVIN DYNAMICS APPLIED TO HYDROGENS
Info: LANGEVIN PISTON PRESSURE CONTROL ACTIVE
Info:        TARGET PRESSURE IS 1.01325 BAR
Info:     OSCILLATION PERIOD IS 50 FS
Info:             DECAY TIME IS 25 FS
Info:     PISTON TEMPERATURE IS 300 K
Info:       PRESSURE CONTROL IS GROUP-BASED
Info:    INITIAL STRAIN RATE IS 0 0 0
Info:       CELL FLUCTUATION IS ISOTROPIC
Info: PARTICLE MESH EWALD (PME) ACTIVE
Info: PME TOLERANCE               1e-06
Info: PME EWALD COEFFICIENT       0.348832
Info: PME INTERPOLATION ORDER     4
Info: PME GRID DIMENSIONS         40 40 36
Info: PME MAXIMUM GRID SPACING    1
Info: FULL ELECTROSTATIC EVALUATION FREQUENCY      2
Info: USING VERLET I (r-RESPA) MTS SCHEME.
Info: C1 SPLITTING OF LONG RANGE ELECTROSTATICS
Info: PLACING ATOMS IN PATCHES BY HYDROGEN GROUPS
Info: RIGID BONDS TO HYDROGEN : ALL
Info:         ERROR TOLERANCE : 1e-08
Info:          MAX ITERATIONS : 100
Info: RIGID WATER USING SETTLE ALGORITHM
Info: RANDOM NUMBER SEED     1743720464
Info: USE HYDROGEN BONDS?    NO
Info: Using AMBER format force field!
Info: AMBER PARM FILE        mobley_4483973.prmtop
Info: COORDINATE PDB         mobley_4483973.pdb
Info: Exclusions will be read from PARM file!
Info: SCNB (VDW SCALING)     2
Info: USING ARITHMETIC MEAN TO COMBINE L-J SIGMA PARAMETERS
Info: BINARY COORDINATES     mobley_4483973_min.coor
Info: SUMMARY OF PARAMETERS:
Info: 5 BONDS
Info: 3 ANGLES
Info:   3 HARMONIC
Info:   0 COSINE-BASED
Info: 2 DIHEDRAL
Info: 0 IMPROPER
Info: 0 CROSSTERM
Info: 0 VDW
Info: 15 VDW_PAIRS
Info: 0 NBTHOLE_PAIRS
Info: STRUCTURE SUMMARY:
Info: 2997 ATOMS
Info: 2997 BONDS
Info: 18 ANGLES
Info: 30 DIHEDRALS
Info: 0 IMPROPERS
Info: 0 CROSSTERMS
Info: 3036 EXCLUSIONS
Info: 12 FIXED ATOMS
Info: 2990 RIGID BONDS
Info: 5 RIGID BONDS BETWEEN FIXED ATOMS
Info: 5970 DEGREES OF FREEDOM
Info: 1002 HYDROGEN GROUPS
Info: 3 ATOMS IN LARGEST HYDROGEN GROUP
Info: 1002 MIGRATION GROUPS
Info: 3 ATOMS IN LARGEST MIGRATION GROUP
Info: 7 HYDROGEN GROUPS WITH ALL ATOMS FIXED
Info: TOTAL MASS = 18022 amu
Info: TOTAL CHARGE = 0 e
Info: MASS DENSITY = 0.662834 g/cm^3
Info: ATOM DENSITY = 0.0663787 atoms/A^3
Info: ADDED 0 IMPLICIT EXCLUSIONS
Info: NONBONDED TABLE R-SQUARED SPACING: 0.0625
Info: NONBONDED TABLE SIZE: 705 POINTS
Info: REMOVING COM VELOCITY 0.0602411 0.127302 0.131133
TCL: Running for 100000 steps
ETITLE: TS BOND ANGLE DIHED IMPRP ELECT VDW BOUNDARY MISC KINETIC TOTAL TEMP POTENTIAL TOTAL3 TEMPAVG PRESSURE GPRESSURE VOLUME PRESSAVG GPRESSAVG
ENERGY: 0 0.0000 0.0000 0.0000 0.0000 -13893.5176 2428.5193 0.0000 0.0000 1779.4319 -9685.5664 299.9835 -11464.9983 -9685.2252 299.9835 386.0270 426.7619 45150.0049 386.0270 426.7619
ENERGY: 100000 0.0000 0.0000 0.0000 0.0000 -14587.0606 2587.0038 0.0000 0.0000 179.8612 -11820.1955 30.3217 -12000.0567 -11819.7962 30.9137 394.6783 428.7424 29159.8331 2.3256 2.3838
TCL: Running 100000 steps at 60 kelvin.
TCL: Setting parameter langevinTemp to 60
TCL: Running for 100000 steps
ETITLE: TS BOND ANGLE DIHED IMPRP ELECT VDW BOUNDARY MISC KINETIC TOTAL TEMP POTENTIAL TOTAL3 TEMPAVG PRESSURE GPRESSURE VOLUME PRESSAVG GPRESSAVG
ENERGY: 100000 0.0000 0.0000 0.0000 0.0000 -14587.0606 2587.0038 0.0000 0.0000 179.7715 -11820.2852 30.3066 -12000.0567 -11819.8880 30.3066 366.3945 428.6210 29159.8331 366.3945 428.6210
ENERGY: 200000 0.0000 0.0000 0.0000 0.0000 -14376.1627 2453.7071 0.0000 0.0000 362.3909 -11560.0647 61.0933 -11922.4556 -11558.8119 59.8653 -369.1406 -313.8543 29242.4314 3.4375 3.4497
TCL: Running 100000 steps at 90 kelvin.
TCL: Setting parameter langevinTemp to 90
TCL: Running for 100000 steps
ETITLE: TS BOND ANGLE DIHED IMPRP ELECT VDW BOUNDARY MISC KINETIC TOTAL TEMP POTENTIAL TOTAL3 TEMPAVG PRESSURE GPRESSURE VOLUME PRESSAVG GPRESSAVG
ENERGY: 200000 0.0000 0.0000 0.0000 0.0000 -14376.1627 2453.7071 0.0000 0.0000 362.2152 -11560.2404 61.0636 -11922.4556 -11559.4788 61.0636 -368.0462 -313.1724 29242.4314 -368.0462 -313.1724
ENERGY: 300000 0.0000 0.0000 0.0000 0.0000 -14192.1774 2394.8058 0.0000 0.0000 542.4922 -11254.8794 91.4554 -11797.3716 -11253.0492 89.8878 -195.9648 -152.5181 29000.1040 3.1210 3.1575
TCL: Running 100000 steps at 120 kelvin.
TCL: Setting parameter langevinTemp to 120
TCL: Running for 100000 steps
ETITLE: TS BOND ANGLE DIHED IMPRP ELECT VDW BOUNDARY MISC KINETIC TOTAL TEMP POTENTIAL TOTAL3 TEMPAVG PRESSURE GPRESSURE VOLUME PRESSAVG GPRESSAVG
ENERGY: 300000 0.0000 0.0000 0.0000 0.0000 -14192.1774 2394.8058 0.0000 0.0000 542.2240 -11255.1476 91.4102 -11797.3716 -11254.1421 91.4102 -212.9479 -152.1756 29000.1040 -212.9479 -152.1756
ENERGY: 400000 0.0000 0.0000 0.0000 0.0000 -14080.6708 2419.1507 0.0000 0.0000 713.8589 -10947.6613 120.3451 -11661.5201 -10945.5069 120.2625 505.2263 548.2765 29140.8020 3.7029 3.6270
TCL: Running 100000 steps at 150 kelvin.
TCL: Setting parameter langevinTemp to 150
TCL: Running for 100000 steps
ETITLE: TS BOND ANGLE DIHED IMPRP ELECT VDW BOUNDARY MISC KINETIC TOTAL TEMP POTENTIAL TOTAL3 TEMPAVG PRESSURE GPRESSURE VOLUME PRESSAVG GPRESSAVG
ENERGY: 400000 0.0000 0.0000 0.0000 0.0000 -14080.6708 2419.1507 0.0000 0.0000 713.5167 -10948.0034 120.2874 -11661.5201 -10946.3992 120.2874 503.7339 548.3607 29140.8020 503.7339 548.3607
ENERGY: 500000 0.0000 0.0000 0.0000 0.0000 -13748.6698 2323.9710 0.0000 0.0000 872.4860 -10552.2128 147.0871 -11424.6987 -10549.9133 150.2397 240.9496 266.1285 29623.7197 4.6705 4.6698
TCL: Running 100000 steps at 180 kelvin.
TCL: Setting parameter langevinTemp to 180
TCL: Running for 100000 steps
ETITLE: TS BOND ANGLE DIHED IMPRP ELECT VDW BOUNDARY MISC KINETIC TOTAL TEMP POTENTIAL TOTAL3 TEMPAVG PRESSURE GPRESSURE VOLUME PRESSAVG GPRESSAVG
ENERGY: 500000 0.0000 0.0000 0.0000 0.0000 -13748.6698 2323.9710 0.0000 0.0000 872.0543 -10552.6445 147.0143 -11424.6987 -10551.0607 147.0143 212.7230 266.5835 29623.7197 212.7230 266.5835
ENERGY: 600000 0.0000 0.0000 0.0000 0.0000 -13338.4897 2205.1775 0.0000 0.0000 1032.2445 -10101.0677 174.0198 -11133.3122 -10099.2577 180.0205 707.1052 767.6537 28892.3124 1.9346 1.9586
TCL: Running 100000 steps at 210 kelvin.
TCL: Setting parameter langevinTemp to 210
TCL: Running for 100000 steps
ETITLE: TS BOND ANGLE DIHED IMPRP ELECT VDW BOUNDARY MISC KINETIC TOTAL TEMP POTENTIAL TOTAL3 TEMPAVG PRESSURE GPRESSURE VOLUME PRESSAVG GPRESSAVG
ENERGY: 600000 0.0000 0.0000 0.0000 0.0000 -13338.4897 2205.1775 0.0000 0.0000 1031.7453 -10101.5669 173.9356 -11133.3122 -10099.6123 173.9356 700.1296 766.6011 28892.3124 700.1296 766.6011
ENERGY: 700000 0.0000 0.0000 0.0000 0.0000 -12577.7406 1826.6612 0.0000 0.0000 1272.5645 -9478.5148 214.5339 -10751.0793 -9474.9436 209.9370 -989.9910 -913.8377 29485.4541 4.1937 4.1094
TCL: Running 100000 steps at 240 kelvin.
TCL: Setting parameter langevinTemp to 240
TCL: Running for 100000 steps
ETITLE: TS BOND ANGLE DIHED IMPRP ELECT VDW BOUNDARY MISC KINETIC TOTAL TEMP POTENTIAL TOTAL3 TEMPAVG PRESSURE GPRESSURE VOLUME PRESSAVG GPRESSAVG
ENERGY: 700000 0.0000 0.0000 0.0000 0.0000 -12577.7406 1826.6612 0.0000 0.0000 1271.9585 -9479.1208 214.4317 -10751.0793 -9476.3144 214.4317 -985.9655 -914.0326 29485.4541 -985.9655 -914.0326
ENERGY: 800000 0.0000 0.0000 0.0000 0.0000 -12052.2035 1769.2269 0.0000 0.0000 1468.2652 -8814.7114 247.5258 -10282.9766 -8811.7034 239.5443 180.9097 303.7327 29458.7172 4.2101 4.3814
TCL: Running 100000 steps at 270 kelvin.
TCL: Setting parameter langevinTemp to 270
TCL: Running for 100000 steps
ETITLE: TS BOND ANGLE DIHED IMPRP ELECT VDW BOUNDARY MISC KINETIC TOTAL TEMP POTENTIAL TOTAL3 TEMPAVG PRESSURE GPRESSURE VOLUME PRESSAVG GPRESSAVG
ENERGY: 800000 0.0000 0.0000 0.0000 0.0000 -12052.2035 1769.2269 0.0000 0.0000 1467.5485 -8815.4282 247.4050 -10282.9766 -8812.9709 247.4050 210.5363 302.8945 29458.7172 210.5363 302.8945
ENERGY: 900000 0.0000 0.0000 0.0000 0.0000 -11427.7622 1638.2825 0.0000 0.0000 1553.8839 -8235.5959 261.9598 -9789.4798 -8233.2331 270.1209 513.5371 602.0533 30150.7366 1.8513 1.8337
TCL: Running 1000000 steps at 300 kelvin.
TCL: Setting parameter langevinTemp to 300
TCL: Running for 1000000 steps
ETITLE: TS BOND ANGLE DIHED IMPRP ELECT VDW BOUNDARY MISC KINETIC TOTAL TEMP POTENTIAL TOTAL3 TEMPAVG PRESSURE GPRESSURE VOLUME PRESSAVG GPRESSAVG
ENERGY: 900000 0.0000 0.0000 0.0000 0.0000 -11427.7623 1638.2825 0.0000 0.0000 1553.0481 -8236.4317 261.8189 -9789.4798 -8234.9682 261.8189 518.9392 603.3227 30150.7366 518.9392 603.3227
ENERGY: 1100000 0.0000 0.0000 0.0000 0.0000 -10938.9698 1535.6370 0.0000 0.0000 1789.6736 -7613.6591 301.7101 -9403.3328 -7609.0881 299.8762 728.4939 840.5008 30630.4083 2.7723 2.9872
ENERGY: 1300000 0.0000 0.0000 0.0000 0.0000 -10863.4368 1427.9328 0.0000 0.0000 1773.9090 -7661.5950 299.0525 -9435.5041 -7658.0921 300.1757 -510.9548 -436.8016 31569.7142 3.1738 3.2649
ENERGY: 1500000 0.0000 0.0000 0.0000 0.0000 -11005.9269 1544.8602 0.0000 0.0000 1772.1852 -7688.8815 298.7619 -9461.0667 -7686.1302 300.4937 515.8167 587.8948 30804.1937 2.8721 2.9386
ENERGY: 1700000 0.0000 0.0000 0.0000 0.0000 -11042.5061 1593.8545 0.0000 0.0000 1798.8954 -7649.7562 303.2648 -9448.6516 -7646.1227 300.1009 759.9933 817.7531 31189.9012 2.2698 2.2747
ENERGY: 1900000 0.0000 0.0000 0.0000 0.0000 -10953.1337 1518.7105 0.0000 0.0000 1750.6134 -7683.8097 295.1252 -9434.4231 -7680.0076 300.0140 314.2711 447.6391 30921.9770 3.7016 3.5964
TCL: Exiting due to exit command.
