Info: SIMULATION PARAMETERS:
Info: TIMESTEP               2
Info: NUMBER OF STEPS        0
Info: STEPS PER CYCLE        10
Info: PERIODIC CELL BASIS 1  37.133 0 0
Info: PERIODIC CELL BASIS 2  0 35.779 0
Info: PERIODIC CELL BASIS 3  0 0 33.27
Info: PERIODIC CELL CENTER   0 0 0
Info: WRAPPING WATERS AROUND PERIODIC BOUNDARIES ON OUTPUT.
Info: WRAPPING ALL CLUSTERS AROUND PERIODIC BOUNDARIES ON OUTPUT.
Info: FIRST LDB TIMESTEP     50
Info: LAST LDB TIMESTEP     -1
Info: HOM BACKGROUND SCALING 1
Info: PME BACKGROUND SCALING 1
Info: MIN ATOMS PER PATCH    40
Info: EMPTY PATCH LOAD       40 ATOMS
Info: INITIAL TEMPERATURE    300
Info: CENTER OF MASS MOVING INITIALLY? NO
Info: DIELECTRIC             1
Info: EXCLUDE                SCALED ONE-FOUR
Info: 1-4 ELECTROSTATICS SCALED BY 0.833333
Info: MODIFIED 1-4 VDW PARAMETERS WILL BE USED
Info: DCD FILENAME           mobley_8966374_equil.dcd
Info: DCD FREQUENCY          100000
Info: DCD FIRST STEP         100000
Info: DCD FILE WILL CONTAIN UNIT CELL DATA
Info: XST FILENAME           mobley_8966374_equil.xst
Info: XST FREQUENCY          100000
Info: NO VELOCITY DCD OUTPUT
Info: NO FORCE DCD OUTPUT
Info: OUTPUT FILENAME        mobley_8966374_equil
Info: BINARY OUTPUT FILES WILL BE USED
Info: RESTART FILENAME       mobley_8966374_equil.restart
Info: RESTART FREQUENCY      100000
Info: BINARY RESTART FILES WILL BE USED
Info: CUTOFF                 9
Info: PAIRLIST DISTANCE      11
Info: PAIRLIST SHRINK RATE   0.01
Info: PAIRLIST GROW RATE     0.01
Info: PAIRLIST TRIGGER       0.3
Info: PAIRLISTS PER CYCLE    2
Info: PAIRLISTS ENABLED
Info: MARGIN                 8
Info: HYDROGEN GROUP CUTOFF  2.5
Info: PATCH DIMENSION        21.5
Info: ENERGY OUTPUT STEPS    100000
Info: ENERGY EVALUATION STEPS    100000
Info: OUTPUT ENERGY PRECISION 4
Info: CROSSTERM ENERGY INCLUDED IN DIHEDRAL
Info: TIMING OUTPUT STEPS    1000000
Info: PRESSURE OUTPUT STEPS  100000
Info: FIXED ATOMS ACTIVE
Info: LANGEVIN DYNAMICS ACTIVE
Info: LANGEVIN TEMPERATURE   30
Info: LANGEVIN USING BBK INTEGRATOR
Info: LANGEVIN DAMPING COEFFICIENT IS 1 INVERSE PS
Info: LANGEVIN DYNAMICS APPLIED TO HYDROGENS
Info: LANGEVIN PISTON PRESSURE CONTROL ACTIVE
Info:        TARGET PRESSURE IS 1.01325 BAR
Info:     OSCILLATION PERIOD IS 50 FS
Info:             DECAY TIME IS 25 FS
Info:     PISTON TEMPERATURE IS 300 K
Info:       PRESSURE CONTROL IS GROUP-BASED
Info:    INITIAL STRAIN RATE IS 0 0 0
Info:       CELL FLUCTUATION IS ISOTROPIC
Info: PARTICLE MESH EWALD (PME) ACTIVE
Info: PME TOLERANCE               1e-06
Info: PME EWALD COEFFICIENT       0.348832
Info: PME INTERPOLATION ORDER     4
Info: PME GRID DIMENSIONS         40 36 36
Info: PME MAXIMUM GRID SPACING    1
Info: FULL ELECTROSTATIC EVALUATION FREQUENCY      2
Info: USING VERLET I (r-RESPA) MTS SCHEME.
Info: C1 SPLITTING OF LONG RANGE ELECTROSTATICS
Info: PLACING ATOMS IN PATCHES BY HYDROGEN GROUPS
Info: RIGID BONDS TO HYDROGEN : ALL
Info:         ERROR TOLERANCE : 1e-08
Info:          MAX ITERATIONS : 100
Info: RIGID WATER USING SETTLE ALGORITHM
Info: RANDOM NUMBER SEED     1743730765
Info: USE HYDROGEN BONDS?    NO
Info: Using AMBER format force field!
Info: AMBER PARM FILE        mobley_8966374.prmtop
Info: COORDINATE PDB         mobley_8966374.pdb
Info: Exclusions will be read from PARM file!
Info: SCNB (VDW SCALING)     2
Info: USING ARITHMETIC MEAN TO COMBINE L-J SIGMA PARAMETERS
Info: BINARY COORDINATES     mobley_8966374_min.coor
Info: SUMMARY OF PARAMETERS:
Info: 7 BONDS
Info: 8 ANGLES
Info:   8 HARMONIC
Info:   0 COSINE-BASED
Info: 4 DIHEDRAL
Info: 0 IMPROPER
Info: 0 CROSSTERM
Info: 0 VDW
Info: 28 VDW_PAIRS
Info: 0 NBTHOLE_PAIRS
Info: STRUCTURE SUMMARY:
Info: 2938 ATOMS
Info: 2938 BONDS
Info: 20 ANGLES
Info: 26 DIHEDRALS
Info: 0 IMPROPERS
Info: 0 CROSSTERMS
Info: 2977 EXCLUSIONS
Info: 13 FIXED ATOMS
Info: 2931 RIGID BONDS
Info: 6 RIGID BONDS BETWEEN FIXED ATOMS
Info: 5850 DEGREES OF FREEDOM
Info: 982 HYDROGEN GROUPS
Info: 4 ATOMS IN LARGEST HYDROGEN GROUP
Info: 982 MIGRATION GROUPS
Info: 4 ATOMS IN LARGEST MIGRATION GROUP
Info: 7 HYDROGEN GROUPS WITH ALL ATOMS FIXED
Info: TOTAL MASS = 17659.7 amu
Info: TOTAL CHARGE = 0.000200011 e
Info: MASS DENSITY = 0.66344 g/cm^3
Info: ATOM DENSITY = 0.0664677 atoms/A^3
Info: ADDED 0 IMPLICIT EXCLUSIONS
Info: NONBONDED TABLE R-SQUARED SPACING: 0.0625
Info: NONBONDED TABLE SIZE: 705 POINTS
Info: REMOVING COM VELOCITY 0.0154978 -0.0680498 -0.151033
TCL: Running for 100000 steps
ETITLE: TS BOND ANGLE DIHED IMPRP ELECT VDW BOUNDARY MISC KINETIC TOTAL TEMP POTENTIAL TOTAL3 TEMPAVG PRESSURE GPRESSURE VOLUME PRESSAVG GPRESSAVG
ENERGY: 0 0.0000 0.0000 0.0000 0.0000 -13704.4103 2407.6043 0.0000 0.0000 1715.6389 -9581.1671 295.1620 -11296.8060 -9580.8267 295.1620 441.5993 470.9290 44201.9101 441.5993 470.9290
ENERGY: 100000 0.0000 0.0000 0.0000 0.0000 -14190.6269 2422.7957 0.0000 0.0000 177.7530 -11590.0783 30.5810 -11767.8313 -11589.6015 31.0314 -436.4146 -354.1199 29071.4700 4.2709 4.2578
TCL: Running 100000 steps at 60 kelvin.
TCL: Setting parameter langevinTemp to 60
TCL: Running for 100000 steps
ETITLE: TS BOND ANGLE DIHED IMPRP ELECT VDW BOUNDARY MISC KINETIC TOTAL TEMP POTENTIAL TOTAL3 TEMPAVG PRESSURE GPRESSURE VOLUME PRESSAVG GPRESSAVG
ENERGY: 100000 0.0000 0.0000 0.0000 0.0000 -14190.6269 2422.7957 0.0000 0.0000 177.6647 -11590.1665 30.5658 -11767.8313 -11589.6813 30.5658 -424.2303 -354.3467 29071.4700 -424.2303 -354.3467
ENERGY: 200000 0.0000 0.0000 0.0000 0.0000 -14166.4049 2448.3728 0.0000 0.0000 345.9364 -11372.0956 59.5156 -11718.0321 -11371.8029 59.8902 -3.4391 72.8948 28749.8583 4.8134 4.8926
TCL: Running 100000 steps at 90 kelvin.
TCL: Setting parameter langevinTemp to 90
TCL: Running for 100000 steps
ETITLE: TS BOND ANGLE DIHED IMPRP ELECT VDW BOUNDARY MISC KINETIC TOTAL TEMP POTENTIAL TOTAL3 TEMPAVG PRESSURE GPRESSURE VOLUME PRESSAVG GPRESSAVG
ENERGY: 200000 0.0000 0.0000 0.0000 0.0000 -14166.4049 2448.3728 0.0000 0.0000 345.7625 -11372.2696 59.4857 -11718.0321 -11371.5037 59.4857 18.9721 72.6263 28749.8583 18.9721 72.6263
ENERGY: 300000 0.0000 0.0000 0.0000 0.0000 -13825.8328 2229.9172 0.0000 0.0000 537.4501 -11058.4656 92.4640 -11595.9157 -11057.4156 89.9555 -1209.7924 -1161.8237 28706.6946 5.1707 5.1899
TCL: Running 100000 steps at 120 kelvin.
TCL: Setting parameter langevinTemp to 120
TCL: Running for 100000 steps
ETITLE: TS BOND ANGLE DIHED IMPRP ELECT VDW BOUNDARY MISC KINETIC TOTAL TEMP POTENTIAL TOTAL3 TEMPAVG PRESSURE GPRESSURE VOLUME PRESSAVG GPRESSAVG
ENERGY: 300000 0.0000 0.0000 0.0000 0.0000 -13825.8328 2229.9172 0.0000 0.0000 537.1937 -11058.7220 92.4199 -11595.9157 -11057.5532 92.4199 -1233.1362 -1162.0676 28706.6946 -1233.1362 -1162.0676
ENERGY: 400000 0.0000 0.0000 0.0000 0.0000 -13727.3649 2279.9896 0.0000 0.0000 693.1761 -10754.1992 119.2554 -11447.3753 -10751.8910 120.0271 -348.3692 -240.8208 28722.9982 2.9941 2.8754
TCL: Running 100000 steps at 150 kelvin.
TCL: Setting parameter langevinTemp to 150
TCL: Running for 100000 steps
ETITLE: TS BOND ANGLE DIHED IMPRP ELECT VDW BOUNDARY MISC KINETIC TOTAL TEMP POTENTIAL TOTAL3 TEMPAVG PRESSURE GPRESSURE VOLUME PRESSAVG GPRESSAVG
ENERGY: 400000 0.0000 0.0000 0.0000 0.0000 -13727.3649 2279.9896 0.0000 0.0000 692.8215 -10754.5538 119.1944 -11447.3753 -10753.3861 119.1944 -306.9001 -240.2174 28722.9982 -306.9001 -240.2174
ENERGY: 500000 0.0000 0.0000 0.0000 0.0000 -13588.7817 2276.9704 0.0000 0.0000 871.7794 -10440.0318 149.9827 -11311.8113 -10438.1877 149.8106 303.5789 317.4221 28672.6077 2.5240 2.6732
TCL: Running 100000 steps at 180 kelvin.
TCL: Setting parameter langevinTemp to 180
TCL: Running for 100000 steps
ETITLE: TS BOND ANGLE DIHED IMPRP ELECT VDW BOUNDARY MISC KINETIC TOTAL TEMP POTENTIAL TOTAL3 TEMPAVG PRESSURE GPRESSURE VOLUME PRESSAVG GPRESSAVG
ENERGY: 500000 0.0000 0.0000 0.0000 0.0000 -13588.7817 2276.9704 0.0000 0.0000 871.3365 -10440.4748 149.9065 -11311.8113 -10438.9827 149.9065 264.8645 316.4023 28672.6077 264.8645 316.4023
ENERGY: 600000 0.0000 0.0000 0.0000 0.0000 -13168.2488 2101.0640 0.0000 0.0000 1039.2948 -10027.8900 178.8024 -11067.1848 -10025.0364 180.1847 -291.4799 -207.1044 28869.8221 4.4780 4.4588
TCL: Running 100000 steps at 210 kelvin.
TCL: Setting parameter langevinTemp to 210
TCL: Running for 100000 steps
ETITLE: TS BOND ANGLE DIHED IMPRP ELECT VDW BOUNDARY MISC KINETIC TOTAL TEMP POTENTIAL TOTAL3 TEMPAVG PRESSURE GPRESSURE VOLUME PRESSAVG GPRESSAVG
ENERGY: 600000 0.0000 0.0000 0.0000 0.0000 -13168.2488 2101.0640 0.0000 0.0000 1038.7441 -10028.4406 178.7076 -11067.1848 -10026.2532 178.7076 -279.0303 -206.8058 28869.8221 -279.0303 -206.8058
ENERGY: 700000 0.0000 0.0000 0.0000 0.0000 -12362.9601 1814.5963 0.0000 0.0000 1229.3375 -9319.0263 211.4977 -10548.3637 -9316.2639 209.6084 -690.4059 -641.2727 28850.5448 3.9364 3.8914
TCL: Running 100000 steps at 240 kelvin.
TCL: Setting parameter langevinTemp to 240
TCL: Running for 100000 steps
ETITLE: TS BOND ANGLE DIHED IMPRP ELECT VDW BOUNDARY MISC KINETIC TOTAL TEMP POTENTIAL TOTAL3 TEMPAVG PRESSURE GPRESSURE VOLUME PRESSAVG GPRESSAVG
ENERGY: 700000 0.0000 0.0000 0.0000 0.0000 -12362.9601 1814.5963 0.0000 0.0000 1228.7314 -9319.6324 211.3934 -10548.3637 -9317.7305 211.3934 -732.6491 -640.9999 28850.5448 -732.6491 -640.9999
ENERGY: 800000 0.0000 0.0000 0.0000 0.0000 -11720.0129 1617.7426 0.0000 0.0000 1376.6423 -8725.6281 236.8403 -10102.2703 -8722.5515 239.5956 -614.5685 -553.0775 28963.0284 3.0796 3.1385
TCL: Running 100000 steps at 270 kelvin.
TCL: Setting parameter langevinTemp to 270
TCL: Running for 100000 steps
ETITLE: TS BOND ANGLE DIHED IMPRP ELECT VDW BOUNDARY MISC KINETIC TOTAL TEMP POTENTIAL TOTAL3 TEMPAVG PRESSURE GPRESSURE VOLUME PRESSAVG GPRESSAVG
ENERGY: 800000 0.0000 0.0000 0.0000 0.0000 -11720.0129 1617.7426 0.0000 0.0000 1375.9497 -8726.3207 236.7212 -10102.2703 -8724.2929 236.7212 -631.6793 -551.6492 28963.0284 -631.6793 -551.6492
ENERGY: 900000 0.0000 0.0000 0.0000 0.0000 -11032.8113 1410.1217 0.0000 0.0000 1593.1386 -8029.5511 274.0868 -9622.6896 -8027.0873 270.0824 -1055.3403 -951.3729 29758.9805 3.1068 3.1182
TCL: Running 1000000 steps at 300 kelvin.
TCL: Setting parameter langevinTemp to 300
TCL: Running for 1000000 steps
ETITLE: TS BOND ANGLE DIHED IMPRP ELECT VDW BOUNDARY MISC KINETIC TOTAL TEMP POTENTIAL TOTAL3 TEMPAVG PRESSURE GPRESSURE VOLUME PRESSAVG GPRESSAVG
ENERGY: 900000 0.0000 0.0000 0.0000 0.0000 -11032.8113 1410.1217 0.0000 0.0000 1592.3327 -8030.3569 273.9481 -9622.6896 -8027.9627 273.9481 -1026.5054 -953.8277 29758.9805 -1026.5054 -953.8277
ENERGY: 1100000 0.0000 0.0000 0.0000 0.0000 -10755.1972 1417.8982 0.0000 0.0000 1694.3231 -7642.9759 291.4948 -9337.2990 -7640.4506 300.6304 200.9148 245.0095 29472.7543 4.5620 4.4573
ENERGY: 1300000 0.0000 0.0000 0.0000 0.0000 -10648.8072 1447.7424 0.0000 0.0000 1758.8685 -7442.1962 302.5993 -9201.0648 -7438.3631 300.2865 293.0802 392.5491 30343.8484 2.4281 2.6427
ENERGY: 1500000 0.0000 0.0000 0.0000 0.0000 -10803.1843 1478.8590 0.0000 0.0000 1763.8951 -7560.4301 303.4641 -9324.3253 -7557.0101 299.9850 390.1947 424.1121 30193.3240 4.7892 4.6416
ENERGY: 1700000 0.0000 0.0000 0.0000 0.0000 -10707.5788 1448.7919 0.0000 0.0000 1788.3321 -7470.4549 307.6683 -9258.7869 -7465.3941 299.9277 184.2166 347.8321 30410.5567 2.7763 2.7361
ENERGY: 1900000 0.0000 0.0000 0.0000 0.0000 -10820.6644 1518.9621 0.0000 0.0000 1720.5742 -7581.1281 296.0111 -9301.7023 -7578.2972 301.1082 805.5971 878.4903 29872.2766 3.0493 2.9113
TCL: Exiting due to exit command.
