Info: SIMULATION PARAMETERS:
Info: TIMESTEP               2
Info: NUMBER OF STEPS        0
Info: STEPS PER CYCLE        10
Info: PERIODIC CELL BASIS 1  37.968 0 0
Info: PERIODIC CELL BASIS 2  0 36.032 0
Info: PERIODIC CELL BASIS 3  0 0 31.349
Info: PERIODIC CELL CENTER   0 0 0
Info: WRAPPING WATERS AROUND PERIODIC BOUNDARIES ON OUTPUT.
Info: WRAPPING ALL CLUSTERS AROUND PERIODIC BOUNDARIES ON OUTPUT.
Info: FIRST LDB TIMESTEP     50
Info: LAST LDB TIMESTEP     -1
Info: HOM BACKGROUND SCALING 1
Info: PME BACKGROUND SCALING 1
Info: MIN ATOMS PER PATCH    40
Info: EMPTY PATCH LOAD       40 ATOMS
Info: INITIAL TEMPERATURE    300
Info: CENTER OF MASS MOVING INITIALLY? NO
Info: DIELECTRIC             1
Info: EXCLUDE                SCALED ONE-FOUR
Info: 1-4 ELECTROSTATICS SCALED BY 0.833333
Info: MODIFIED 1-4 VDW PARAMETERS WILL BE USED
Info: DCD FILENAME           mobley_7039935_equil.dcd
Info: DCD FREQUENCY          100000
Info: DCD FIRST STEP         100000
Info: DCD FILE WILL CONTAIN UNIT CELL DATA
Info: XST FILENAME           mobley_7039935_equil.xst
Info: XST FREQUENCY          100000
Info: NO VELOCITY DCD OUTPUT
Info: NO FORCE DCD OUTPUT
Info: OUTPUT FILENAME        mobley_7039935_equil
Info: BINARY OUTPUT FILES WILL BE USED
Info: RESTART FILENAME       mobley_7039935_equil.restart
Info: RESTART FREQUENCY      100000
Info: BINARY RESTART FILES WILL BE USED
Info: CUTOFF                 9
Info: PAIRLIST DISTANCE      11
Info: PAIRLIST SHRINK RATE   0.01
Info: PAIRLIST GROW RATE     0.01
Info: PAIRLIST TRIGGER       0.3
Info: PAIRLISTS PER CYCLE    2
Info: PAIRLISTS ENABLED
Info: MARGIN                 8
Info: HYDROGEN GROUP CUTOFF  2.5
Info: PATCH DIMENSION        21.5
Info: ENERGY OUTPUT STEPS    100000
Info: ENERGY EVALUATION STEPS    100000
Info: OUTPUT ENERGY PRECISION 4
Info: CROSSTERM ENERGY INCLUDED IN DIHEDRAL
Info: TIMING OUTPUT STEPS    1000000
Info: PRESSURE OUTPUT STEPS  100000
Info: FIXED ATOMS ACTIVE
Info: LANGEVIN DYNAMICS ACTIVE
Info: LANGEVIN TEMPERATURE   30
Info: LANGEVIN USING BBK INTEGRATOR
Info: LANGEVIN DAMPING COEFFICIENT IS 1 INVERSE PS
Info: LANGEVIN DYNAMICS APPLIED TO HYDROGENS
Info: LANGEVIN PISTON PRESSURE CONTROL ACTIVE
Info:        TARGET PRESSURE IS 1.01325 BAR
Info:     OSCILLATION PERIOD IS 50 FS
Info:             DECAY TIME IS 25 FS
Info:     PISTON TEMPERATURE IS 300 K
Info:       PRESSURE CONTROL IS GROUP-BASED
Info:    INITIAL STRAIN RATE IS 0 0 0
Info:       CELL FLUCTUATION IS ISOTROPIC
Info: PARTICLE MESH EWALD (PME) ACTIVE
Info: PME TOLERANCE               1e-06
Info: PME EWALD COEFFICIENT       0.348832
Info: PME INTERPOLATION ORDER     4
Info: PME GRID DIMENSIONS         40 40 32
Info: PME MAXIMUM GRID SPACING    1
Info: FULL ELECTROSTATIC EVALUATION FREQUENCY      2
Info: USING VERLET I (r-RESPA) MTS SCHEME.
Info: C1 SPLITTING OF LONG RANGE ELECTROSTATICS
Info: PLACING ATOMS IN PATCHES BY HYDROGEN GROUPS
Info: RIGID BONDS TO HYDROGEN : ALL
Info:         ERROR TOLERANCE : 1e-08
Info:          MAX ITERATIONS : 100
Info: RIGID WATER USING SETTLE ALGORITHM
Info: RANDOM NUMBER SEED     1743764125
Info: USE HYDROGEN BONDS?    NO
Info: Using AMBER format force field!
Info: AMBER PARM FILE        mobley_7039935.prmtop
Info: COORDINATE PDB         mobley_7039935.pdb
Info: Exclusions will be read from PARM file!
Info: SCNB (VDW SCALING)     2
Info: USING ARITHMETIC MEAN TO COMBINE L-J SIGMA PARAMETERS
Info: BINARY COORDINATES     mobley_7039935_min.coor
Info: SUMMARY OF PARAMETERS:
Info: 6 BONDS
Info: 4 ANGLES
Info:   4 HARMONIC
Info:   0 COSINE-BASED
Info: 3 DIHEDRAL
Info: 0 IMPROPER
Info: 0 CROSSTERM
Info: 0 VDW
Info: 15 VDW_PAIRS
Info: 0 NBTHOLE_PAIRS
Info: STRUCTURE SUMMARY:
Info: 2941 ATOMS
Info: 2942 BONDS
Info: 31 ANGLES
Info: 56 DIHEDRALS
Info: 0 IMPROPERS
Info: 0 CROSSTERMS
Info: 3013 EXCLUSIONS
Info: 19 FIXED ATOMS
Info: 2930 RIGID BONDS
Info: 8 RIGID BONDS BETWEEN FIXED ATOMS
Info: 5844 DEGREES OF FREEDOM
Info: 985 HYDROGEN GROUPS
Info: 3 ATOMS IN LARGEST HYDROGEN GROUP
Info: 985 MIGRATION GROUPS
Info: 3 ATOMS IN LARGEST MIGRATION GROUP
Info: 11 HYDROGEN GROUPS WITH ALL ATOMS FIXED
Info: TOTAL MASS = 17691.7 amu
Info: TOTAL CHARGE = 0.00019999 e
Info: MASS DENSITY = 0.685015 g/cm^3
Info: ATOM DENSITY = 0.0685749 atoms/A^3
Info: ADDED 0 IMPLICIT EXCLUSIONS
Info: NONBONDED TABLE R-SQUARED SPACING: 0.0625
Info: NONBONDED TABLE SIZE: 705 POINTS
Info: REMOVING COM VELOCITY -0.111327 -0.0662598 -0.217331
TCL: Running for 100000 steps
ETITLE: TS BOND ANGLE DIHED IMPRP ELECT VDW BOUNDARY MISC KINETIC TOTAL TEMP POTENTIAL TOTAL3 TEMPAVG PRESSURE GPRESSURE VOLUME PRESSAVG GPRESSAVG
ENERGY: 0 0.0000 0.0000 0.0000 0.0000 -13713.9448 2351.4343 0.0000 0.0000 1626.5954 -9735.9152 280.1301 -11362.5105 -9735.6209 280.1301 138.0926 173.8297 42887.4062 138.0926 173.8297
ENERGY: 100000 0.0000 0.0000 0.0000 0.0000 -14096.5426 2403.9002 0.0000 0.0000 175.9831 -11516.6593 30.3076 -11692.6424 -11516.0349 30.7928 -451.4030 -397.8793 29291.2044 3.6534 3.6242
TCL: Running 100000 steps at 60 kelvin.
TCL: Setting parameter langevinTemp to 60
TCL: Running for 100000 steps
ETITLE: TS BOND ANGLE DIHED IMPRP ELECT VDW BOUNDARY MISC KINETIC TOTAL TEMP POTENTIAL TOTAL3 TEMPAVG PRESSURE GPRESSURE VOLUME PRESSAVG GPRESSAVG
ENERGY: 100000 0.0000 0.0000 0.0000 0.0000 -14096.5426 2403.9002 0.0000 0.0000 175.8983 -11516.7441 30.2930 -11692.6424 -11516.2811 30.2930 -453.8255 -397.8590 29291.2044 -453.8255 -397.8590
ENERGY: 200000 0.0000 0.0000 0.0000 0.0000 -14078.7868 2408.5655 0.0000 0.0000 357.0199 -11313.2014 61.4855 -11670.2213 -11312.3619 60.0085 -275.1192 -235.9516 28824.9719 3.6255 3.5932
TCL: Running 100000 steps at 90 kelvin.
TCL: Setting parameter langevinTemp to 90
TCL: Running for 100000 steps
ETITLE: TS BOND ANGLE DIHED IMPRP ELECT VDW BOUNDARY MISC KINETIC TOTAL TEMP POTENTIAL TOTAL3 TEMPAVG PRESSURE GPRESSURE VOLUME PRESSAVG GPRESSAVG
ENERGY: 200000 0.0000 0.0000 0.0000 0.0000 -14078.7868 2408.5655 0.0000 0.0000 356.8383 -11313.3830 61.4542 -11670.2213 -11312.4708 61.4542 -266.2788 -236.0672 28824.9719 -266.2788 -236.0672
ENERGY: 300000 0.0000 0.0000 0.0000 0.0000 -14002.1393 2452.2161 0.0000 0.0000 532.2602 -11017.6630 91.6651 -11549.9231 -11016.9078 89.9249 629.1161 673.3843 28851.0151 3.4745 3.3954
TCL: Running 100000 steps at 120 kelvin.
TCL: Setting parameter langevinTemp to 120
TCL: Running for 100000 steps
ETITLE: TS BOND ANGLE DIHED IMPRP ELECT VDW BOUNDARY MISC KINETIC TOTAL TEMP POTENTIAL TOTAL3 TEMPAVG PRESSURE GPRESSURE VOLUME PRESSAVG GPRESSAVG
ENERGY: 300000 0.0000 0.0000 0.0000 0.0000 -14002.1393 2452.2161 0.0000 0.0000 532.0037 -11017.9194 91.6210 -11549.9231 -11017.0738 91.6210 627.5929 672.3795 28851.0151 627.5929 672.3795
ENERGY: 400000 0.0000 0.0000 0.0000 0.0000 -13744.1388 2324.6575 0.0000 0.0000 729.6468 -10689.8346 125.6588 -11419.4814 -10687.6227 119.9235 -58.4292 10.2798 29072.7006 4.1009 4.0692
TCL: Running 100000 steps at 150 kelvin.
TCL: Setting parameter langevinTemp to 150
TCL: Running for 100000 steps
ETITLE: TS BOND ANGLE DIHED IMPRP ELECT VDW BOUNDARY MISC KINETIC TOTAL TEMP POTENTIAL TOTAL3 TEMPAVG PRESSURE GPRESSURE VOLUME PRESSAVG GPRESSAVG
ENERGY: 400000 0.0000 0.0000 0.0000 0.0000 -13744.1388 2324.6575 0.0000 0.0000 729.2993 -10690.1820 125.5989 -11419.4814 -10688.4075 125.5989 -48.3829 10.6715 29072.7006 -48.3829 10.6715
ENERGY: 500000 0.0000 0.0000 0.0000 0.0000 -13659.4592 2356.3743 0.0000 0.0000 891.2337 -10411.8512 153.4871 -11303.0849 -10409.5143 150.2453 619.9224 721.5208 29112.3222 3.5325 3.5726
TCL: Running 100000 steps at 180 kelvin.
TCL: Setting parameter langevinTemp to 180
TCL: Running for 100000 steps
ETITLE: TS BOND ANGLE DIHED IMPRP ELECT VDW BOUNDARY MISC KINETIC TOTAL TEMP POTENTIAL TOTAL3 TEMPAVG PRESSURE GPRESSURE VOLUME PRESSAVG GPRESSAVG
ENERGY: 500000 0.0000 0.0000 0.0000 0.0000 -13659.4592 2356.3743 0.0000 0.0000 890.8162 -10412.2686 153.4152 -11303.0849 -10410.7547 153.4152 665.8710 722.0566 29112.3222 665.8710 722.0566
ENERGY: 600000 0.0000 0.0000 0.0000 0.0000 -13131.3757 2123.3843 0.0000 0.0000 1065.3567 -9942.6347 183.4743 -11007.9914 -9939.4136 180.0253 144.8779 192.5630 28599.8402 3.3764 3.2933
TCL: Running 100000 steps at 210 kelvin.
TCL: Setting parameter langevinTemp to 210
TCL: Running for 100000 steps
ETITLE: TS BOND ANGLE DIHED IMPRP ELECT VDW BOUNDARY MISC KINETIC TOTAL TEMP POTENTIAL TOTAL3 TEMPAVG PRESSURE GPRESSURE VOLUME PRESSAVG GPRESSAVG
ENERGY: 600000 0.0000 0.0000 0.0000 0.0000 -13131.3757 2123.3843 0.0000 0.0000 1064.8368 -9943.1546 183.3848 -11007.9914 -9941.2725 183.3848 128.5521 193.2035 28599.8402 128.5521 193.2035
ENERGY: 700000 0.0000 0.0000 0.0000 0.0000 -12238.2345 1725.1715 0.0000 0.0000 1218.8439 -9294.2191 209.9077 -10513.0630 -9292.0053 210.0533 -1017.2163 -935.3715 28259.0465 3.1489 3.0665
TCL: Running 100000 steps at 240 kelvin.
TCL: Setting parameter langevinTemp to 240
TCL: Running for 100000 steps
ETITLE: TS BOND ANGLE DIHED IMPRP ELECT VDW BOUNDARY MISC KINETIC TOTAL TEMP POTENTIAL TOTAL3 TEMPAVG PRESSURE GPRESSURE VOLUME PRESSAVG GPRESSAVG
ENERGY: 700000 0.0000 0.0000 0.0000 0.0000 -12238.2345 1725.1715 0.0000 0.0000 1218.2678 -9294.7952 209.8084 -10513.0630 -9292.6072 209.8084 -1014.4133 -934.8518 28259.0465 -1014.4133 -934.8518
ENERGY: 800000 0.0000 0.0000 0.0000 0.0000 -11800.6176 1710.1366 0.0000 0.0000 1420.5256 -8669.9555 244.6410 -10090.4810 -8666.1188 240.4443 -33.0923 29.5587 29097.8362 2.4950 2.5085
TCL: Running 100000 steps at 270 kelvin.
TCL: Setting parameter langevinTemp to 270
TCL: Running for 100000 steps
ETITLE: TS BOND ANGLE DIHED IMPRP ELECT VDW BOUNDARY MISC KINETIC TOTAL TEMP POTENTIAL TOTAL3 TEMPAVG PRESSURE GPRESSURE VOLUME PRESSAVG GPRESSAVG
ENERGY: 800000 0.0000 0.0000 0.0000 0.0000 -11800.6176 1710.1366 0.0000 0.0000 1419.8326 -8670.6485 244.5216 -10090.4810 -8668.2183 244.5216 -41.5164 30.7576 29097.8362 -41.5164 30.7576
ENERGY: 900000 0.0000 0.0000 0.0000 0.0000 -11228.5209 1561.3144 0.0000 0.0000 1589.8757 -8077.3308 273.8062 -9667.2065 -8074.8526 269.9312 325.0384 332.8194 29185.0483 3.6582 3.6813
TCL: Running 1000000 steps at 300 kelvin.
TCL: Setting parameter langevinTemp to 300
TCL: Running for 1000000 steps
ETITLE: TS BOND ANGLE DIHED IMPRP ELECT VDW BOUNDARY MISC KINETIC TOTAL TEMP POTENTIAL TOTAL3 TEMPAVG PRESSURE GPRESSURE VOLUME PRESSAVG GPRESSAVG
ENERGY: 900000 0.0000 0.0000 0.0000 0.0000 -11228.5209 1561.3144 0.0000 0.0000 1589.0907 -8078.1158 273.6710 -9667.2065 -8075.8998 273.6710 254.2756 332.1974 29185.0483 254.2756 332.1974
ENERGY: 1100000 0.0000 0.0000 0.0000 0.0000 -10703.1647 1442.6616 0.0000 0.0000 1748.3451 -7512.1580 301.0976 -9260.5031 -7508.9372 300.1812 143.9751 240.7628 30237.9742 3.1774 3.1142
ENERGY: 1300000 0.0000 0.0000 0.0000 0.0000 -10753.8097 1477.3322 0.0000 0.0000 1727.6263 -7548.8512 297.5295 -9276.4775 -7546.1213 300.1920 625.5527 741.6675 29638.7666 4.1415 4.3252
ENERGY: 1500000 0.0000 0.0000 0.0000 0.0000 -10728.0779 1463.2144 0.0000 0.0000 1735.9775 -7528.8860 298.9677 -9264.8635 -7525.8675 299.9939 234.6192 312.7608 30368.5381 3.0544 3.1803
ENERGY: 1700000 0.0000 0.0000 0.0000 0.0000 -10688.6755 1477.5216 0.0000 0.0000 1721.8475 -7489.3064 296.5343 -9211.1539 -7488.0827 300.4091 488.6885 565.9862 30305.1779 2.3871 2.3553
ENERGY: 1900000 0.0000 0.0000 0.0000 0.0000 -10576.7863 1328.2776 0.0000 0.0000 1752.5934 -7495.9152 301.8293 -9248.5086 -7490.8651 300.1616 -744.6831 -669.8567 30521.5753 3.8776 3.9170
TCL: Exiting due to exit command.
