Info: SIMULATION PARAMETERS:
Info: TIMESTEP               2
Info: NUMBER OF STEPS        0
Info: STEPS PER CYCLE        10
Info: PERIODIC CELL BASIS 1  36.592 0 0
Info: PERIODIC CELL BASIS 2  0 34.26 0
Info: PERIODIC CELL BASIS 3  0 0 34.954
Info: PERIODIC CELL CENTER   0 0 0
Info: WRAPPING WATERS AROUND PERIODIC BOUNDARIES ON OUTPUT.
Info: WRAPPING ALL CLUSTERS AROUND PERIODIC BOUNDARIES ON OUTPUT.
Info: FIRST LDB TIMESTEP     50
Info: LAST LDB TIMESTEP     -1
Info: HOM BACKGROUND SCALING 1
Info: PME BACKGROUND SCALING 1
Info: MIN ATOMS PER PATCH    40
Info: EMPTY PATCH LOAD       40 ATOMS
Info: INITIAL TEMPERATURE    300
Info: CENTER OF MASS MOVING INITIALLY? NO
Info: DIELECTRIC             1
Info: EXCLUDE                SCALED ONE-FOUR
Info: 1-4 ELECTROSTATICS SCALED BY 0.833333
Info: MODIFIED 1-4 VDW PARAMETERS WILL BE USED
Info: DCD FILENAME           mobley_7261305_equil.dcd
Info: DCD FREQUENCY          100000
Info: DCD FIRST STEP         100000
Info: DCD FILE WILL CONTAIN UNIT CELL DATA
Info: XST FILENAME           mobley_7261305_equil.xst
Info: XST FREQUENCY          100000
Info: NO VELOCITY DCD OUTPUT
Info: NO FORCE DCD OUTPUT
Info: OUTPUT FILENAME        mobley_7261305_equil
Info: BINARY OUTPUT FILES WILL BE USED
Info: RESTART FILENAME       mobley_7261305_equil.restart
Info: RESTART FREQUENCY      100000
Info: BINARY RESTART FILES WILL BE USED
Info: CUTOFF                 9
Info: PAIRLIST DISTANCE      11
Info: PAIRLIST SHRINK RATE   0.01
Info: PAIRLIST GROW RATE     0.01
Info: PAIRLIST TRIGGER       0.3
Info: PAIRLISTS PER CYCLE    2
Info: PAIRLISTS ENABLED
Info: MARGIN                 8
Info: HYDROGEN GROUP CUTOFF  2.5
Info: PATCH DIMENSION        21.5
Info: ENERGY OUTPUT STEPS    100000
Info: ENERGY EVALUATION STEPS    100000
Info: OUTPUT ENERGY PRECISION 4
Info: CROSSTERM ENERGY INCLUDED IN DIHEDRAL
Info: TIMING OUTPUT STEPS    1000000
Info: PRESSURE OUTPUT STEPS  100000
Info: FIXED ATOMS ACTIVE
Info: LANGEVIN DYNAMICS ACTIVE
Info: LANGEVIN TEMPERATURE   30
Info: LANGEVIN USING BBK INTEGRATOR
Info: LANGEVIN DAMPING COEFFICIENT IS 1 INVERSE PS
Info: LANGEVIN DYNAMICS APPLIED TO HYDROGENS
Info: LANGEVIN PISTON PRESSURE CONTROL ACTIVE
Info:        TARGET PRESSURE IS 1.01325 BAR
Info:     OSCILLATION PERIOD IS 50 FS
Info:             DECAY TIME IS 25 FS
Info:     PISTON TEMPERATURE IS 300 K
Info:       PRESSURE CONTROL IS GROUP-BASED
Info:    INITIAL STRAIN RATE IS 0 0 0
Info:       CELL FLUCTUATION IS ISOTROPIC
Info: PARTICLE MESH EWALD (PME) ACTIVE
Info: PME TOLERANCE               1e-06
Info: PME EWALD COEFFICIENT       0.348832
Info: PME INTERPOLATION ORDER     4
Info: PME GRID DIMENSIONS         40 36 36
Info: PME MAXIMUM GRID SPACING    1
Info: FULL ELECTROSTATIC EVALUATION FREQUENCY      2
Info: USING VERLET I (r-RESPA) MTS SCHEME.
Info: C1 SPLITTING OF LONG RANGE ELECTROSTATICS
Info: PLACING ATOMS IN PATCHES BY HYDROGEN GROUPS
Info: RIGID BONDS TO HYDROGEN : ALL
Info:         ERROR TOLERANCE : 1e-08
Info:          MAX ITERATIONS : 100
Info: RIGID WATER USING SETTLE ALGORITHM
Info: RANDOM NUMBER SEED     1743679600
Info: USE HYDROGEN BONDS?    NO
Info: Using AMBER format force field!
Info: AMBER PARM FILE        mobley_7261305.prmtop
Info: COORDINATE PDB         mobley_7261305.pdb
Info: Exclusions will be read from PARM file!
Info: SCNB (VDW SCALING)     2
Info: USING ARITHMETIC MEAN TO COMBINE L-J SIGMA PARAMETERS
Info: BINARY COORDINATES     mobley_7261305_min.coor
Info: SUMMARY OF PARAMETERS:
Info: 4 BONDS
Info: 2 ANGLES
Info:   2 HARMONIC
Info:   0 COSINE-BASED
Info: 1 DIHEDRAL
Info: 0 IMPROPER
Info: 0 CROSSTERM
Info: 0 VDW
Info: 10 VDW_PAIRS
Info: 0 NBTHOLE_PAIRS
Info: STRUCTURE SUMMARY:
Info: 2937 ATOMS
Info: 2936 BONDS
Info: 6 ANGLES
Info: 4 DIHEDRALS
Info: 0 IMPROPERS
Info: 0 CROSSTERMS
Info: 2946 EXCLUSIONS
Info: 6 FIXED ATOMS
Info: 2935 RIGID BONDS
Info: 4 RIGID BONDS BETWEEN FIXED ATOMS
Info: 5862 DEGREES OF FREEDOM
Info: 979 HYDROGEN GROUPS
Info: 3 ATOMS IN LARGEST HYDROGEN GROUP
Info: 979 MIGRATION GROUPS
Info: 3 ATOMS IN LARGEST MIGRATION GROUP
Info: 2 HYDROGEN GROUPS WITH ALL ATOMS FIXED
Info: TOTAL MASS = 17633.7 amu
Info: TOTAL CHARGE = -0.000200033 e
Info: MASS DENSITY = 0.668239 g/cm^3
Info: ATOM DENSITY = 0.0670245 atoms/A^3
Info: ADDED 0 IMPLICIT EXCLUSIONS
Info: NONBONDED TABLE R-SQUARED SPACING: 0.0625
Info: NONBONDED TABLE SIZE: 705 POINTS
Info: REMOVING COM VELOCITY 0.106851 0.066367 0.0916308
TCL: Running for 100000 steps
ETITLE: TS BOND ANGLE DIHED IMPRP ELECT VDW BOUNDARY MISC KINETIC TOTAL TEMP POTENTIAL TOTAL3 TEMPAVG PRESSURE GPRESSURE VOLUME PRESSAVG GPRESSAVG
ENERGY: 0 0.0000 0.0000 0.0000 0.0000 -13655.6519 2353.6134 0.0000 0.0000 1791.4006 -9510.6379 307.5653 -11302.0385 -9510.2682 307.5653 287.6875 324.7595 43819.7997 287.6875 324.7595
ENERGY: 100000 0.0000 0.0000 0.0000 0.0000 -14064.0411 2309.6382 0.0000 0.0000 168.0604 -11586.3425 28.8543 -11754.4029 -11586.0685 31.0107 -1274.9463 -1218.9440 29658.3211 4.7234 4.6987
TCL: Running 100000 steps at 60 kelvin.
TCL: Setting parameter langevinTemp to 60
TCL: Running for 100000 steps
ETITLE: TS BOND ANGLE DIHED IMPRP ELECT VDW BOUNDARY MISC KINETIC TOTAL TEMP POTENTIAL TOTAL3 TEMPAVG PRESSURE GPRESSURE VOLUME PRESSAVG GPRESSAVG
ENERGY: 100000 0.0000 0.0000 0.0000 0.0000 -14064.0411 2309.6382 0.0000 0.0000 167.9750 -11586.4279 28.8396 -11754.4029 -11586.1419 28.8396 -1276.8725 -1219.0078 29658.3211 -1276.8725 -1219.0078
ENERGY: 200000 0.0000 0.0000 0.0000 0.0000 -13961.7572 2283.9562 0.0000 0.0000 351.0208 -11326.7802 60.2667 -11677.8010 -11325.6083 59.9599 -1041.5655 -1010.8674 29187.2529 3.5514 3.4411
TCL: Running 100000 steps at 90 kelvin.
TCL: Setting parameter langevinTemp to 90
TCL: Running for 100000 steps
ETITLE: TS BOND ANGLE DIHED IMPRP ELECT VDW BOUNDARY MISC KINETIC TOTAL TEMP POTENTIAL TOTAL3 TEMPAVG PRESSURE GPRESSURE VOLUME PRESSAVG GPRESSAVG
ENERGY: 200000 0.0000 0.0000 0.0000 0.0000 -13961.7572 2283.9562 0.0000 0.0000 350.8450 -11326.9560 60.2365 -11677.8010 -11326.2329 60.2365 -1064.5025 -1010.8144 29187.2529 -1064.5025 -1010.8144
ENERGY: 300000 0.0000 0.0000 0.0000 0.0000 -14018.1308 2397.8335 0.0000 0.0000 520.7817 -11099.5156 89.4129 -11620.2973 -11097.7576 89.9384 103.8318 176.9446 28837.6869 3.5037 3.3962
TCL: Running 100000 steps at 120 kelvin.
TCL: Setting parameter langevinTemp to 120
TCL: Running for 100000 steps
ETITLE: TS BOND ANGLE DIHED IMPRP ELECT VDW BOUNDARY MISC KINETIC TOTAL TEMP POTENTIAL TOTAL3 TEMPAVG PRESSURE GPRESSURE VOLUME PRESSAVG GPRESSAVG
ENERGY: 300000 0.0000 0.0000 0.0000 0.0000 -14018.1308 2397.8335 0.0000 0.0000 520.5264 -11099.7709 89.3691 -11620.2973 -11098.7749 89.3691 131.1621 177.4533 28837.6869 131.1621 177.4533
ENERGY: 400000 0.0000 0.0000 0.0000 0.0000 -13885.7422 2375.8399 0.0000 0.0000 702.3441 -10807.5582 120.5853 -11509.9023 -10806.5306 120.0922 483.5308 512.4162 28644.6671 2.8167 2.8510
TCL: Running 100000 steps at 150 kelvin.
TCL: Setting parameter langevinTemp to 150
TCL: Running for 100000 steps
ETITLE: TS BOND ANGLE DIHED IMPRP ELECT VDW BOUNDARY MISC KINETIC TOTAL TEMP POTENTIAL TOTAL3 TEMPAVG PRESSURE GPRESSURE VOLUME PRESSAVG GPRESSAVG
ENERGY: 400000 0.0000 0.0000 0.0000 0.0000 -13885.7422 2375.8399 0.0000 0.0000 701.9921 -10807.9102 120.5249 -11509.9023 -10806.7368 120.5249 460.8632 511.3870 28644.6671 460.8632 511.3870
ENERGY: 500000 0.0000 0.0000 0.0000 0.0000 -13575.7830 2206.7941 0.0000 0.0000 905.3690 -10463.6199 155.4427 -11368.9889 -10461.4649 149.9518 -390.4794 -360.9443 28701.9503 2.2153 2.2858
TCL: Running 100000 steps at 180 kelvin.
TCL: Setting parameter langevinTemp to 180
TCL: Running for 100000 steps
ETITLE: TS BOND ANGLE DIHED IMPRP ELECT VDW BOUNDARY MISC KINETIC TOTAL TEMP POTENTIAL TOTAL3 TEMPAVG PRESSURE GPRESSURE VOLUME PRESSAVG GPRESSAVG
ENERGY: 500000 0.0000 0.0000 0.0000 0.0000 -13575.7830 2206.7941 0.0000 0.0000 904.9339 -10464.0550 155.3679 -11368.9889 -10462.0468 155.3679 -421.4079 -361.7698 28701.9503 -421.4079 -361.7698
ENERGY: 600000 0.0000 0.0000 0.0000 0.0000 -13105.1506 2077.2410 0.0000 0.0000 1040.1729 -9987.7368 178.5871 -11027.9096 -9983.8921 179.5127 -374.2440 -284.8537 28857.2010 3.0816 3.0802
TCL: Running 100000 steps at 210 kelvin.
TCL: Setting parameter langevinTemp to 210
TCL: Running for 100000 steps
ETITLE: TS BOND ANGLE DIHED IMPRP ELECT VDW BOUNDARY MISC KINETIC TOTAL TEMP POTENTIAL TOTAL3 TEMPAVG PRESSURE GPRESSURE VOLUME PRESSAVG GPRESSAVG
ENERGY: 600000 0.0000 0.0000 0.0000 0.0000 -13105.1506 2077.2410 0.0000 0.0000 1039.6555 -9988.2541 178.4983 -11027.9096 -9985.8660 178.4983 -359.6469 -283.1812 28857.2010 -359.6469 -283.1812
ENERGY: 700000 0.0000 0.0000 0.0000 0.0000 -12481.8984 1868.5071 0.0000 0.0000 1238.2518 -9375.1394 212.5952 -10613.3912 -9370.7964 210.0689 -223.8442 -119.7437 28449.2795 4.4835 4.1775
TCL: Running 100000 steps at 240 kelvin.
TCL: Setting parameter langevinTemp to 240
TCL: Running for 100000 steps
ETITLE: TS BOND ANGLE DIHED IMPRP ELECT VDW BOUNDARY MISC KINETIC TOTAL TEMP POTENTIAL TOTAL3 TEMPAVG PRESSURE GPRESSURE VOLUME PRESSAVG GPRESSAVG
ENERGY: 700000 0.0000 0.0000 0.0000 0.0000 -12481.8984 1868.5071 0.0000 0.0000 1237.6292 -9375.7620 212.4883 -10613.3912 -9374.0244 212.4883 -192.7007 -118.0181 28449.2795 -192.7007 -118.0181
ENERGY: 800000 0.0000 0.0000 0.0000 0.0000 -11957.1874 1781.6474 0.0000 0.0000 1433.8693 -8741.6706 246.1808 -10175.5400 -8739.3133 239.5821 353.8302 503.3439 29000.5399 2.9902 3.1269
TCL: Running 100000 steps at 270 kelvin.
TCL: Setting parameter langevinTemp to 270
TCL: Running for 100000 steps
ETITLE: TS BOND ANGLE DIHED IMPRP ELECT VDW BOUNDARY MISC KINETIC TOTAL TEMP POTENTIAL TOTAL3 TEMPAVG PRESSURE GPRESSURE VOLUME PRESSAVG GPRESSAVG
ENERGY: 800000 0.0000 0.0000 0.0000 0.0000 -11957.1874 1781.6474 0.0000 0.0000 1433.1319 -8742.4080 246.0542 -10175.5400 -8739.8008 246.0542 425.5877 501.0015 29000.5399 425.5877 501.0015
ENERGY: 900000 0.0000 0.0000 0.0000 0.0000 -11348.9229 1579.7113 0.0000 0.0000 1555.7480 -8213.4637 267.1061 -9769.2116 -8211.9164 268.9930 -44.4527 97.3751 29296.2754 4.1604 4.0245
TCL: Running 1000000 steps at 300 kelvin.
TCL: Setting parameter langevinTemp to 300
TCL: Running for 1000000 steps
ETITLE: TS BOND ANGLE DIHED IMPRP ELECT VDW BOUNDARY MISC KINETIC TOTAL TEMP POTENTIAL TOTAL3 TEMPAVG PRESSURE GPRESSURE VOLUME PRESSAVG GPRESSAVG
ENERGY: 900000 0.0000 0.0000 0.0000 0.0000 -11348.9229 1579.7113 0.0000 0.0000 1554.9441 -8214.2675 266.9681 -9769.2116 -8211.9904 266.9681 1.8885 95.8744 29296.2754 1.8885 95.8744
ENERGY: 1100000 0.0000 0.0000 0.0000 0.0000 -10798.6266 1491.5328 0.0000 0.0000 1810.6898 -7496.4040 310.8770 -9307.0939 -7493.7278 300.8253 547.3799 651.2586 30144.0409 3.5949 3.4939
ENERGY: 1300000 0.0000 0.0000 0.0000 0.0000 -10853.1241 1499.9686 0.0000 0.0000 1680.5194 -7672.6362 288.5281 -9353.1555 -7669.4579 299.7530 567.6630 626.9435 29712.3033 3.3523 3.4069
ENERGY: 1500000 0.0000 0.0000 0.0000 0.0000 -10697.4286 1457.6764 0.0000 0.0000 1702.3051 -7537.4471 292.2685 -9239.7522 -7533.7861 300.1078 223.8529 286.9385 30578.5820 3.3097 3.3432
ENERGY: 1700000 0.0000 0.0000 0.0000 0.0000 -10812.7316 1414.5718 0.0000 0.0000 1775.2423 -7622.9175 304.7910 -9398.1598 -7621.5485 299.9002 -361.8081 -237.7475 30039.6050 3.2326 3.3126
ENERGY: 1900000 0.0000 0.0000 0.0000 0.0000 -10768.0145 1450.1216 0.0000 0.0000 1716.5544 -7601.3385 294.7149 -9317.8929 -7598.5626 300.5203 192.5161 312.5806 29889.0082 4.2497 4.2404
TCL: Exiting due to exit command.
