Info: SIMULATION PARAMETERS:
Info: TIMESTEP               2
Info: NUMBER OF STEPS        0
Info: STEPS PER CYCLE        10
Info: PERIODIC CELL BASIS 1  36.005 0 0
Info: PERIODIC CELL BASIS 2  0 35.779 0
Info: PERIODIC CELL BASIS 3  0 0 34.68
Info: PERIODIC CELL CENTER   0 0 0
Info: WRAPPING WATERS AROUND PERIODIC BOUNDARIES ON OUTPUT.
Info: WRAPPING ALL CLUSTERS AROUND PERIODIC BOUNDARIES ON OUTPUT.
Info: FIRST LDB TIMESTEP     50
Info: LAST LDB TIMESTEP     -1
Info: HOM BACKGROUND SCALING 1
Info: PME BACKGROUND SCALING 1
Info: MIN ATOMS PER PATCH    40
Info: EMPTY PATCH LOAD       40 ATOMS
Info: INITIAL TEMPERATURE    300
Info: CENTER OF MASS MOVING INITIALLY? NO
Info: DIELECTRIC             1
Info: EXCLUDE                SCALED ONE-FOUR
Info: 1-4 ELECTROSTATICS SCALED BY 0.833333
Info: MODIFIED 1-4 VDW PARAMETERS WILL BE USED
Info: DCD FILENAME           mobley_5627459_equil.dcd
Info: DCD FREQUENCY          100000
Info: DCD FIRST STEP         100000
Info: DCD FILE WILL CONTAIN UNIT CELL DATA
Info: XST FILENAME           mobley_5627459_equil.xst
Info: XST FREQUENCY          100000
Info: NO VELOCITY DCD OUTPUT
Info: NO FORCE DCD OUTPUT
Info: OUTPUT FILENAME        mobley_5627459_equil
Info: BINARY OUTPUT FILES WILL BE USED
Info: RESTART FILENAME       mobley_5627459_equil.restart
Info: RESTART FREQUENCY      100000
Info: BINARY RESTART FILES WILL BE USED
Info: CUTOFF                 9
Info: PAIRLIST DISTANCE      11
Info: PAIRLIST SHRINK RATE   0.01
Info: PAIRLIST GROW RATE     0.01
Info: PAIRLIST TRIGGER       0.3
Info: PAIRLISTS PER CYCLE    2
Info: PAIRLISTS ENABLED
Info: MARGIN                 8
Info: HYDROGEN GROUP CUTOFF  2.5
Info: PATCH DIMENSION        21.5
Info: ENERGY OUTPUT STEPS    100000
Info: ENERGY EVALUATION STEPS    100000
Info: OUTPUT ENERGY PRECISION 4
Info: CROSSTERM ENERGY INCLUDED IN DIHEDRAL
Info: TIMING OUTPUT STEPS    1000000
Info: PRESSURE OUTPUT STEPS  100000
Info: FIXED ATOMS ACTIVE
Info: LANGEVIN DYNAMICS ACTIVE
Info: LANGEVIN TEMPERATURE   30
Info: LANGEVIN USING BBK INTEGRATOR
Info: LANGEVIN DAMPING COEFFICIENT IS 1 INVERSE PS
Info: LANGEVIN DYNAMICS APPLIED TO HYDROGENS
Info: LANGEVIN PISTON PRESSURE CONTROL ACTIVE
Info:        TARGET PRESSURE IS 1.01325 BAR
Info:     OSCILLATION PERIOD IS 50 FS
Info:             DECAY TIME IS 25 FS
Info:     PISTON TEMPERATURE IS 300 K
Info:       PRESSURE CONTROL IS GROUP-BASED
Info:    INITIAL STRAIN RATE IS 0 0 0
Info:       CELL FLUCTUATION IS ISOTROPIC
Info: PARTICLE MESH EWALD (PME) ACTIVE
Info: PME TOLERANCE               1e-06
Info: PME EWALD COEFFICIENT       0.348832
Info: PME INTERPOLATION ORDER     4
Info: PME GRID DIMENSIONS         40 36 36
Info: PME MAXIMUM GRID SPACING    1
Info: FULL ELECTROSTATIC EVALUATION FREQUENCY      2
Info: USING VERLET I (r-RESPA) MTS SCHEME.
Info: C1 SPLITTING OF LONG RANGE ELECTROSTATICS
Info: PLACING ATOMS IN PATCHES BY HYDROGEN GROUPS
Info: RIGID BONDS TO HYDROGEN : ALL
Info:         ERROR TOLERANCE : 1e-08
Info:          MAX ITERATIONS : 100
Info: RIGID WATER USING SETTLE ALGORITHM
Info: RANDOM NUMBER SEED     1743900973
Info: USE HYDROGEN BONDS?    NO
Info: Using AMBER format force field!
Info: AMBER PARM FILE        mobley_5627459.prmtop
Info: COORDINATE PDB         mobley_5627459.pdb
Info: Exclusions will be read from PARM file!
Info: SCNB (VDW SCALING)     2
Info: USING ARITHMETIC MEAN TO COMBINE L-J SIGMA PARAMETERS
Info: BINARY COORDINATES     mobley_5627459_min.coor
Info: SUMMARY OF PARAMETERS:
Info: 7 BONDS
Info: 8 ANGLES
Info: 8 DIHEDRAL
Info: 0 IMPROPER
Info: 0 CROSSTERM
Info: 0 VDW
Info: 28 VDW_PAIRS
Info: 0 NBTHOLE_PAIRS
Info: STRUCTURE SUMMARY:
Info: 2923 ATOMS
Info: 2922 BONDS
Info: 21 ANGLES
Info: 27 DIHEDRALS
Info: 0 IMPROPERS
Info: 0 CROSSTERMS
Info: 2967 EXCLUSIONS
Info: 13 FIXED ATOMS
Info: 2918 RIGID BONDS
Info: 8 RIGID BONDS BETWEEN FIXED ATOMS
Info: 5820 DEGREES OF FREEDOM
Info: 975 HYDROGEN GROUPS
Info: 4 ATOMS IN LARGEST HYDROGEN GROUP
Info: 975 MIGRATION GROUPS
Info: 4 ATOMS IN LARGEST MIGRATION GROUP
Info: 5 HYDROGEN GROUPS WITH ALL ATOMS FIXED
Info: TOTAL MASS = 17547.6 amu
Info: TOTAL CHARGE = 0.000200025 e
Info: MASS DENSITY = 0.65224 g/cm^3
Info: ATOM DENSITY = 0.0654273 atoms/A^3
Info: ADDED 0 IMPLICIT EXCLUSIONS
Info: NONBONDED TABLE R-SQUARED SPACING: 0.0625
Info: NONBONDED TABLE SIZE: 705 POINTS
Info: REMOVING COM VELOCITY 0.217556 0.0277377 -0.0262551
TCL: Running for 100000 steps
ETITLE: TS BOND ANGLE DIHED IMPRP ELECT VDW BOUNDARY MISC KINETIC TOTAL TEMP POTENTIAL TOTAL3 TEMPAVG PRESSURE GPRESSURE VOLUME PRESSAVG GPRESSAVG
ENERGY: 0 0.0000 0.0000 0.0000 0.0000 -13605.9644 2420.1544 0.0000 0.0000 1736.1920 -9449.6180 300.2377 -11185.8100 -9449.2978 300.2377 644.3721 681.5399 44675.5700 644.3721 681.5399
ENERGY: 100000 0.0000 0.0000 0.0000 0.0000 -14132.4040 2451.6482 0.0000 0.0000 172.8408 -11507.9150 29.8892 -11680.7558 -11507.3213 30.8901 71.0619 95.9612 28393.8205 4.4405 4.3945
TCL: Running 100000 steps at 60 kelvin.
TCL: Setting parameter langevinTemp to 60
TCL: Running for 100000 steps
ETITLE: TS BOND ANGLE DIHED IMPRP ELECT VDW BOUNDARY MISC KINETIC TOTAL TEMP POTENTIAL TOTAL3 TEMPAVG PRESSURE GPRESSURE VOLUME PRESSAVG GPRESSAVG
ENERGY: 100000 0.0000 0.0000 0.0000 0.0000 -14132.4040 2451.6482 0.0000 0.0000 172.7538 -11508.0020 29.8741 -11680.7558 -11507.5684 29.8741 49.4193 95.8817 28393.8205 49.4193 95.8817
ENERGY: 200000 0.0000 0.0000 0.0000 0.0000 -13921.9976 2331.6759 0.0000 0.0000 342.7818 -11247.5400 59.2768 -11590.3217 -11246.7922 59.9288 -612.5003 -542.0225 28479.6250 2.2192 2.1859
TCL: Running 100000 steps at 90 kelvin.
TCL: Setting parameter langevinTemp to 90
TCL: Running for 100000 steps
ETITLE: TS BOND ANGLE DIHED IMPRP ELECT VDW BOUNDARY MISC KINETIC TOTAL TEMP POTENTIAL TOTAL3 TEMPAVG PRESSURE GPRESSURE VOLUME PRESSAVG GPRESSAVG
ENERGY: 200000 0.0000 0.0000 0.0000 0.0000 -13921.9976 2331.6759 0.0000 0.0000 342.6123 -11247.7094 59.2476 -11590.3217 -11246.9566 59.2476 -589.6995 -542.3982 28479.6250 -589.6995 -542.3982
ENERGY: 300000 0.0000 0.0000 0.0000 0.0000 -13829.8596 2347.5468 0.0000 0.0000 535.8797 -10946.4331 92.6691 -11482.3129 -10945.1368 89.9151 16.8231 93.2184 28282.1635 3.8935 3.8103
TCL: Running 100000 steps at 120 kelvin.
TCL: Setting parameter langevinTemp to 120
TCL: Running for 100000 steps
ETITLE: TS BOND ANGLE DIHED IMPRP ELECT VDW BOUNDARY MISC KINETIC TOTAL TEMP POTENTIAL TOTAL3 TEMPAVG PRESSURE GPRESSURE VOLUME PRESSAVG GPRESSAVG
ENERGY: 300000 0.0000 0.0000 0.0000 0.0000 -13829.8596 2347.5468 0.0000 0.0000 535.6112 -10946.7016 92.6226 -11482.3129 -10945.7301 92.6226 49.6204 93.6744 28282.1635 49.6204 93.6744
ENERGY: 400000 0.0000 0.0000 0.0000 0.0000 -13823.0781 2420.8681 0.0000 0.0000 720.7165 -10681.4934 124.6327 -11402.2100 -10679.0814 120.0743 1070.4357 1123.5247 28066.6235 3.7173 3.7177
TCL: Running 100000 steps at 150 kelvin.
TCL: Setting parameter langevinTemp to 150
TCL: Running for 100000 steps
ETITLE: TS BOND ANGLE DIHED IMPRP ELECT VDW BOUNDARY MISC KINETIC TOTAL TEMP POTENTIAL TOTAL3 TEMPAVG PRESSURE GPRESSURE VOLUME PRESSAVG GPRESSAVG
ENERGY: 400000 0.0000 0.0000 0.0000 0.0000 -13823.0781 2420.8681 0.0000 0.0000 720.3791 -10681.8309 124.5743 -11402.2100 -10680.4180 124.5743 1083.5348 1124.5748 28066.6235 1083.5348 1124.5748
ENERGY: 500000 0.0000 0.0000 0.0000 0.0000 -13518.1081 2284.6383 0.0000 0.0000 891.8006 -10341.6692 154.2180 -11233.4698 -10339.9022 150.1672 501.5628 496.0925 28307.8129 2.9687 3.0433
TCL: Running 100000 steps at 180 kelvin.
TCL: Setting parameter langevinTemp to 180
TCL: Running for 100000 steps
ETITLE: TS BOND ANGLE DIHED IMPRP ELECT VDW BOUNDARY MISC KINETIC TOTAL TEMP POTENTIAL TOTAL3 TEMPAVG PRESSURE GPRESSURE VOLUME PRESSAVG GPRESSAVG
ENERGY: 500000 0.0000 0.0000 0.0000 0.0000 -13518.1081 2284.6383 0.0000 0.0000 891.3720 -10342.0978 154.1439 -11233.4698 -10340.5387 154.1439 457.4888 495.6184 28307.8129 457.4888 495.6184
ENERGY: 600000 0.0000 0.0000 0.0000 0.0000 -13037.9847 2135.3726 0.0000 0.0000 1038.7956 -9863.8164 179.6377 -10902.6121 -9861.5881 179.9954 420.1849 437.4138 28595.2346 4.1412 4.1294
TCL: Running 100000 steps at 210 kelvin.
TCL: Setting parameter langevinTemp to 210
TCL: Running for 100000 steps
ETITLE: TS BOND ANGLE DIHED IMPRP ELECT VDW BOUNDARY MISC KINETIC TOTAL TEMP POTENTIAL TOTAL3 TEMPAVG PRESSURE GPRESSURE VOLUME PRESSAVG GPRESSAVG
ENERGY: 600000 0.0000 0.0000 0.0000 0.0000 -13037.9847 2135.3726 0.0000 0.0000 1038.2763 -9864.3358 179.5479 -10902.6121 -9862.4021 179.5479 372.8796 437.7377 28595.2346 372.8796 437.7377
ENERGY: 700000 0.0000 0.0000 0.0000 0.0000 -12278.5056 1852.0767 0.0000 0.0000 1210.3760 -9216.0528 209.3089 -10426.4288 -9212.2345 209.6677 125.5160 177.3217 28273.1805 2.9692 2.8822
TCL: Running 100000 steps at 240 kelvin.
TCL: Setting parameter langevinTemp to 240
TCL: Running for 100000 steps
ETITLE: TS BOND ANGLE DIHED IMPRP ELECT VDW BOUNDARY MISC KINETIC TOTAL TEMP POTENTIAL TOTAL3 TEMPAVG PRESSURE GPRESSURE VOLUME PRESSAVG GPRESSAVG
ENERGY: 700000 0.0000 0.0000 0.0000 0.0000 -12278.5056 1852.0767 0.0000 0.0000 1209.7577 -9216.6712 209.2020 -10426.4288 -9215.2275 209.2020 115.2257 177.6506 28273.1805 115.2257 177.6506
ENERGY: 800000 0.0000 0.0000 0.0000 0.0000 -11531.6037 1517.6871 0.0000 0.0000 1389.7628 -8624.1538 240.3301 -10013.9166 -8620.9010 239.9817 -1557.4316 -1500.6680 29172.1838 4.0254 4.0893
TCL: Running 100000 steps at 270 kelvin.
TCL: Setting parameter langevinTemp to 270
TCL: Running for 100000 steps
ETITLE: TS BOND ANGLE DIHED IMPRP ELECT VDW BOUNDARY MISC KINETIC TOTAL TEMP POTENTIAL TOTAL3 TEMPAVG PRESSURE GPRESSURE VOLUME PRESSAVG GPRESSAVG
ENERGY: 800000 0.0000 0.0000 0.0000 0.0000 -11531.6037 1517.6871 0.0000 0.0000 1389.0460 -8624.8706 240.2061 -10013.9166 -8622.2198 240.2061 -1570.9801 -1499.3416 29172.1838 -1570.9801 -1499.3416
ENERGY: 900000 0.0000 0.0000 0.0000 0.0000 -11067.1043 1480.0470 0.0000 0.0000 1564.5746 -8022.4827 270.5601 -9587.0574 -8020.0950 270.5287 -763.5176 -689.2731 29875.4653 1.4515 1.4197
TCL: Running 1000000 steps at 300 kelvin.
TCL: Setting parameter langevinTemp to 300
TCL: Running for 1000000 steps
ETITLE: TS BOND ANGLE DIHED IMPRP ELECT VDW BOUNDARY MISC KINETIC TOTAL TEMP POTENTIAL TOTAL3 TEMPAVG PRESSURE GPRESSURE VOLUME PRESSAVG GPRESSAVG
ENERGY: 900000 0.0000 0.0000 0.0000 0.0000 -11067.1043 1480.0470 0.0000 0.0000 1563.7547 -8023.3027 270.4183 -9587.0574 -8020.9984 270.4183 -776.6577 -691.5762 29875.4653 -776.6577 -691.5762
ENERGY: 1100000 0.0000 0.0000 0.0000 0.0000 -10586.1900 1375.6794 0.0000 0.0000 1730.7763 -7479.7342 299.3011 -9210.5106 -7475.6241 299.4856 -225.9864 -178.5696 29949.2159 2.5717 2.7433
ENERGY: 1300000 0.0000 0.0000 0.0000 0.0000 -10635.1344 1380.7135 0.0000 0.0000 1684.7164 -7569.7045 291.3360 -9254.4209 -7565.1019 300.0479 -360.2414 -269.6657 29878.6693 4.0826 3.9177
ENERGY: 1500000 0.0000 0.0000 0.0000 0.0000 -10707.6818 1452.1335 0.0000 0.0000 1762.6731 -7492.8752 304.8170 -9255.5483 -7490.6405 300.5870 385.2032 432.3834 29689.0961 2.3620 2.4832
ENERGY: 1700000 0.0000 0.0000 0.0000 0.0000 -10522.6201 1330.0135 0.0000 0.0000 1716.1064 -7476.5002 296.7643 -9192.6066 -7473.0645 299.8382 -571.9205 -506.7093 30031.6671 2.9337 2.8843
ENERGY: 1900000 0.0000 0.0000 0.0000 0.0000 -10679.5511 1467.0837 0.0000 0.0000 1747.0762 -7465.3912 302.1198 -9212.4674 -7461.3020 300.3128 254.0198 385.9995 30091.9244 2.9088 2.9909
TCL: Exiting due to exit command.
