Info: SIMULATION PARAMETERS:
Info: TIMESTEP               2
Info: NUMBER OF STEPS        0
Info: STEPS PER CYCLE        10
Info: PERIODIC CELL BASIS 1  37.133 0 0
Info: PERIODIC CELL BASIS 2  0 34.457 0
Info: PERIODIC CELL BASIS 3  0 0 34.01
Info: PERIODIC CELL CENTER   0 0 0
Info: WRAPPING WATERS AROUND PERIODIC BOUNDARIES ON OUTPUT.
Info: WRAPPING ALL CLUSTERS AROUND PERIODIC BOUNDARIES ON OUTPUT.
Info: FIRST LDB TIMESTEP     50
Info: LAST LDB TIMESTEP     -1
Info: HOM BACKGROUND SCALING 1
Info: PME BACKGROUND SCALING 1
Info: MIN ATOMS PER PATCH    40
Info: EMPTY PATCH LOAD       40 ATOMS
Info: INITIAL TEMPERATURE    300
Info: CENTER OF MASS MOVING INITIALLY? NO
Info: DIELECTRIC             1
Info: EXCLUDE                SCALED ONE-FOUR
Info: 1-4 ELECTROSTATICS SCALED BY 0.833333
Info: MODIFIED 1-4 VDW PARAMETERS WILL BE USED
Info: DCD FILENAME           mobley_2725802_equil.dcd
Info: DCD FREQUENCY          100000
Info: DCD FIRST STEP         100000
Info: DCD FILE WILL CONTAIN UNIT CELL DATA
Info: XST FILENAME           mobley_2725802_equil.xst
Info: XST FREQUENCY          100000
Info: NO VELOCITY DCD OUTPUT
Info: NO FORCE DCD OUTPUT
Info: OUTPUT FILENAME        mobley_2725802_equil
Info: BINARY OUTPUT FILES WILL BE USED
Info: RESTART FILENAME       mobley_2725802_equil.restart
Info: RESTART FREQUENCY      100000
Info: BINARY RESTART FILES WILL BE USED
Info: CUTOFF                 9
Info: PAIRLIST DISTANCE      11
Info: PAIRLIST SHRINK RATE   0.01
Info: PAIRLIST GROW RATE     0.01
Info: PAIRLIST TRIGGER       0.3
Info: PAIRLISTS PER CYCLE    2
Info: PAIRLISTS ENABLED
Info: MARGIN                 8
Info: HYDROGEN GROUP CUTOFF  2.5
Info: PATCH DIMENSION        21.5
Info: ENERGY OUTPUT STEPS    100000
Info: ENERGY EVALUATION STEPS    100000
Info: OUTPUT ENERGY PRECISION 4
Info: CROSSTERM ENERGY INCLUDED IN DIHEDRAL
Info: TIMING OUTPUT STEPS    1000000
Info: PRESSURE OUTPUT STEPS  100000
Info: FIXED ATOMS ACTIVE
Info: LANGEVIN DYNAMICS ACTIVE
Info: LANGEVIN TEMPERATURE   30
Info: LANGEVIN USING BBK INTEGRATOR
Info: LANGEVIN DAMPING COEFFICIENT IS 1 INVERSE PS
Info: LANGEVIN DYNAMICS APPLIED TO HYDROGENS
Info: LANGEVIN PISTON PRESSURE CONTROL ACTIVE
Info:        TARGET PRESSURE IS 1.01325 BAR
Info:     OSCILLATION PERIOD IS 50 FS
Info:             DECAY TIME IS 25 FS
Info:     PISTON TEMPERATURE IS 300 K
Info:       PRESSURE CONTROL IS GROUP-BASED
Info:    INITIAL STRAIN RATE IS 0 0 0
Info:       CELL FLUCTUATION IS ISOTROPIC
Info: PARTICLE MESH EWALD (PME) ACTIVE
Info: PME TOLERANCE               1e-06
Info: PME EWALD COEFFICIENT       0.348832
Info: PME INTERPOLATION ORDER     4
Info: PME GRID DIMENSIONS         40 36 36
Info: PME MAXIMUM GRID SPACING    1
Info: FULL ELECTROSTATIC EVALUATION FREQUENCY      2
Info: USING VERLET I (r-RESPA) MTS SCHEME.
Info: C1 SPLITTING OF LONG RANGE ELECTROSTATICS
Info: PLACING ATOMS IN PATCHES BY HYDROGEN GROUPS
Info: RIGID BONDS TO HYDROGEN : ALL
Info:         ERROR TOLERANCE : 1e-08
Info:          MAX ITERATIONS : 100
Info: RIGID WATER USING SETTLE ALGORITHM
Info: RANDOM NUMBER SEED     1744678130
Info: USE HYDROGEN BONDS?    NO
Info: Using AMBER format force field!
Info: AMBER PARM FILE        mobley_2725802.prmtop
Info: COORDINATE PDB         mobley_2725802.pdb
Info: Exclusions will be read from PARM file!
Info: SCNB (VDW SCALING)     2
Info: USING ARITHMETIC MEAN TO COMBINE L-J SIGMA PARAMETERS
Info: BINARY COORDINATES     mobley_2725802_min.coor
Info: SUMMARY OF PARAMETERS:
Info: 9 BONDS
Info: 13 ANGLES
Info:   13 HARMONIC
Info:   0 COSINE-BASED
Info: 17 DIHEDRAL
Info: 0 IMPROPER
Info: 0 CROSSTERM
Info: 0 VDW
Info: 36 VDW_PAIRS
Info: 0 NBTHOLE_PAIRS
Info: STRUCTURE SUMMARY:
Info: 2917 ATOMS
Info: 2917 BONDS
Info: 36 ANGLES
Info: 67 DIHEDRALS
Info: 0 IMPROPERS
Info: 0 CROSSTERMS
Info: 2997 EXCLUSIONS
Info: 19 FIXED ATOMS
Info: 2909 RIGID BONDS
Info: 11 RIGID BONDS BETWEEN FIXED ATOMS
Info: 5796 DEGREES OF FREEDOM
Info: 974 HYDROGEN GROUPS
Info: 4 ATOMS IN LARGEST HYDROGEN GROUP
Info: 974 MIGRATION GROUPS
Info: 4 ATOMS IN LARGEST MIGRATION GROUP
Info: 8 HYDROGEN GROUPS WITH ALL ATOMS FIXED
Info: TOTAL MASS = 17516.6 amu
Info: TOTAL CHARGE = -0.000100024 e
Info: MASS DENSITY = 0.668444 g/cm^3
Info: ATOM DENSITY = 0.0670336 atoms/A^3
Info: ADDED 0 IMPLICIT EXCLUSIONS
Info: NONBONDED TABLE R-SQUARED SPACING: 0.0625
Info: NONBONDED TABLE SIZE: 705 POINTS
Info: REMOVING COM VELOCITY 0.155712 -0.00795615 0.203431
TCL: Running for 100000 steps
ETITLE: TS BOND ANGLE DIHED IMPRP ELECT VDW BOUNDARY MISC KINETIC TOTAL TEMP POTENTIAL TOTAL3 TEMPAVG PRESSURE GPRESSURE VOLUME PRESSAVG GPRESSAVG
ENERGY: 0 0.0000 0.0000 0.0000 0.0000 -13500.7637 2363.5413 0.0000 0.0000 1701.4832 -9435.7393 295.4539 -11137.2224 -9435.4179 295.4539 441.1035 475.0561 43515.5155 441.1035 475.0561
ENERGY: 100000 0.0000 0.0000 0.0000 0.0000 -14121.0519 2442.5606 0.0000 0.0000 174.6625 -11503.8289 30.3292 -11678.4913 -11503.1445 30.9190 -50.6210 16.8422 28555.9032 3.0988 3.1646
TCL: Running 100000 steps at 60 kelvin.
TCL: Setting parameter langevinTemp to 60
TCL: Running for 100000 steps
ETITLE: TS BOND ANGLE DIHED IMPRP ELECT VDW BOUNDARY MISC KINETIC TOTAL TEMP POTENTIAL TOTAL3 TEMPAVG PRESSURE GPRESSURE VOLUME PRESSAVG GPRESSAVG
ENERGY: 100000 0.0000 0.0000 0.0000 0.0000 -14121.0519 2442.5606 0.0000 0.0000 174.5762 -11503.9151 30.3143 -11678.4913 -11503.5718 30.3143 -47.3282 17.1586 28555.9032 -47.3282 17.1586
ENERGY: 200000 0.0000 0.0000 0.0000 0.0000 -13847.1494 2272.5687 0.0000 0.0000 357.3486 -11217.2320 62.0518 -11574.5807 -11216.6035 59.9236 -899.9100 -854.4448 28538.3638 4.1583 4.1851
TCL: Running 100000 steps at 90 kelvin.
TCL: Setting parameter langevinTemp to 90
TCL: Running for 100000 steps
ETITLE: TS BOND ANGLE DIHED IMPRP ELECT VDW BOUNDARY MISC KINETIC TOTAL TEMP POTENTIAL TOTAL3 TEMPAVG PRESSURE GPRESSURE VOLUME PRESSAVG GPRESSAVG
ENERGY: 200000 0.0000 0.0000 0.0000 0.0000 -13847.1493 2272.5687 0.0000 0.0000 357.1824 -11217.3983 62.0229 -11574.5807 -11216.7604 62.0229 -903.9642 -854.8043 28538.3638 -903.9642 -854.8043
ENERGY: 300000 0.0000 0.0000 0.0000 0.0000 -13922.7288 2430.3597 0.0000 0.0000 497.6965 -10994.6726 86.4225 -11492.3691 -10993.6939 89.9338 1025.2897 1106.8354 27839.8834 3.7789 3.7771
TCL: Running 100000 steps at 120 kelvin.
TCL: Setting parameter langevinTemp to 120
TCL: Running for 100000 steps
ETITLE: TS BOND ANGLE DIHED IMPRP ELECT VDW BOUNDARY MISC KINETIC TOTAL TEMP POTENTIAL TOTAL3 TEMPAVG PRESSURE GPRESSURE VOLUME PRESSAVG GPRESSAVG
ENERGY: 300000 0.0000 0.0000 0.0000 0.0000 -13922.7288 2430.3597 0.0000 0.0000 497.4357 -10994.9334 86.3772 -11492.3691 -10994.1620 86.3772 1052.7242 1106.1048 27839.8834 1052.7242 1106.1048
ENERGY: 400000 0.0000 0.0000 0.0000 0.0000 -13460.3591 2110.9948 0.0000 0.0000 673.8778 -10675.4864 117.0154 -11349.3642 -10674.4401 119.9284 -1475.9763 -1388.9998 28579.6817 4.1010 4.0984
TCL: Running 100000 steps at 150 kelvin.
TCL: Setting parameter langevinTemp to 150
TCL: Running for 100000 steps
ETITLE: TS BOND ANGLE DIHED IMPRP ELECT VDW BOUNDARY MISC KINETIC TOTAL TEMP POTENTIAL TOTAL3 TEMPAVG PRESSURE GPRESSURE VOLUME PRESSAVG GPRESSAVG
ENERGY: 400000 0.0000 0.0000 0.0000 0.0000 -13460.3591 2110.9948 0.0000 0.0000 673.5392 -10675.8251 116.9566 -11349.3642 -10674.2593 116.9566 -1465.3838 -1389.7672 28579.6817 -1465.3838 -1389.7672
ENERGY: 500000 0.0000 0.0000 0.0000 0.0000 -13550.5989 2301.5188 0.0000 0.0000 866.4444 -10382.6357 150.4536 -11249.0801 -10379.8288 150.0892 459.0753 502.5914 28499.5141 3.7136 3.7224
TCL: Running 100000 steps at 180 kelvin.
TCL: Setting parameter langevinTemp to 180
TCL: Running for 100000 steps
ETITLE: TS BOND ANGLE DIHED IMPRP ELECT VDW BOUNDARY MISC KINETIC TOTAL TEMP POTENTIAL TOTAL3 TEMPAVG PRESSURE GPRESSURE VOLUME PRESSAVG GPRESSAVG
ENERGY: 500000 0.0000 0.0000 0.0000 0.0000 -13550.5989 2301.5188 0.0000 0.0000 866.0158 -10383.0643 150.3792 -11249.0801 -10381.1736 150.3792 455.3548 504.4467 28499.5141 455.3548 504.4467
ENERGY: 600000 0.0000 0.0000 0.0000 0.0000 -12965.3533 2059.3236 0.0000 0.0000 1033.6635 -9872.3663 179.4904 -10906.0298 -9868.8322 179.9854 -339.2673 -219.0025 28618.0562 3.4804 3.4768
TCL: Running 100000 steps at 210 kelvin.
TCL: Setting parameter langevinTemp to 210
TCL: Running for 100000 steps
ETITLE: TS BOND ANGLE DIHED IMPRP ELECT VDW BOUNDARY MISC KINETIC TOTAL TEMP POTENTIAL TOTAL3 TEMPAVG PRESSURE GPRESSURE VOLUME PRESSAVG GPRESSAVG
ENERGY: 600000 0.0000 0.0000 0.0000 0.0000 -12965.3533 2059.3236 0.0000 0.0000 1033.1617 -9872.8680 179.4033 -10906.0298 -9870.9208 179.4033 -290.1266 -218.3940 28618.0562 -290.1266 -218.3940
ENERGY: 700000 0.0000 0.0000 0.0000 0.0000 -12446.6404 1998.5821 0.0000 0.0000 1182.3680 -9265.6904 205.3122 -10448.0583 -9263.1434 209.9256 1257.5278 1304.4960 28116.9799 3.1607 3.2745
TCL: Running 100000 steps at 240 kelvin.
TCL: Setting parameter langevinTemp to 240
TCL: Running for 100000 steps
ETITLE: TS BOND ANGLE DIHED IMPRP ELECT VDW BOUNDARY MISC KINETIC TOTAL TEMP POTENTIAL TOTAL3 TEMPAVG PRESSURE GPRESSURE VOLUME PRESSAVG GPRESSAVG
ENERGY: 700000 0.0000 0.0000 0.0000 0.0000 -12446.6404 1998.5821 0.0000 0.0000 1181.7763 -9266.2821 205.2094 -10448.0583 -9264.4527 205.2094 1242.8274 1305.8810 28116.9799 1242.8274 1305.8810
ENERGY: 800000 0.0000 0.0000 0.0000 0.0000 -11603.9117 1606.7864 0.0000 0.0000 1376.3328 -8620.7924 238.9932 -9997.1252 -8617.2439 240.5658 -604.7346 -529.4971 28712.6141 3.9208 3.8257
TCL: Running 100000 steps at 270 kelvin.
TCL: Setting parameter langevinTemp to 270
TCL: Running for 100000 steps
ETITLE: TS BOND ANGLE DIHED IMPRP ELECT VDW BOUNDARY MISC KINETIC TOTAL TEMP POTENTIAL TOTAL3 TEMPAVG PRESSURE GPRESSURE VOLUME PRESSAVG GPRESSAVG
ENERGY: 800000 0.0000 0.0000 0.0000 0.0000 -11603.9117 1606.7864 0.0000 0.0000 1375.6443 -8621.4809 238.8736 -9997.1252 -8619.1449 238.8736 -617.8438 -529.1022 28712.6141 -617.8438 -529.1022
ENERGY: 900000 0.0000 0.0000 0.0000 0.0000 -11121.5896 1496.1946 0.0000 0.0000 1576.6779 -8048.7171 273.7821 -9625.3950 -8047.7419 269.4080 -493.9641 -434.5140 29477.8331 3.2573 3.1245
TCL: Running 1000000 steps at 300 kelvin.
TCL: Setting parameter langevinTemp to 300
TCL: Running for 1000000 steps
ETITLE: TS BOND ANGLE DIHED IMPRP ELECT VDW BOUNDARY MISC KINETIC TOTAL TEMP POTENTIAL TOTAL3 TEMPAVG PRESSURE GPRESSURE VOLUME PRESSAVG GPRESSAVG
ENERGY: 900000 0.0000 0.0000 0.0000 0.0000 -11121.5896 1496.1946 0.0000 0.0000 1575.9142 -8049.4808 273.6495 -9625.3950 -8047.7612 273.6495 -520.4922 -437.0484 29477.8331 -520.4922 -437.0484
ENERGY: 1100000 0.0000 0.0000 0.0000 0.0000 -10637.9577 1458.7810 0.0000 0.0000 1717.6363 -7461.5405 298.2588 -9179.1768 -7457.8894 300.8555 453.9046 519.0758 30021.7341 3.6783 3.5769
ENERGY: 1300000 0.0000 0.0000 0.0000 0.0000 -10579.7256 1356.2344 0.0000 0.0000 1716.4555 -7507.0356 298.0537 -9223.4912 -7505.5003 299.6383 -392.6445 -290.4359 29889.3321 1.9255 1.9056
ENERGY: 1500000 0.0000 0.0000 0.0000 0.0000 -10406.9113 1319.2526 0.0000 0.0000 1768.8923 -7318.7664 307.1591 -9087.6586 -7313.7065 299.8304 -460.3024 -363.5818 30339.0419 2.3055 2.2998
ENERGY: 1700000 0.0000 0.0000 0.0000 0.0000 -10735.0602 1483.7172 0.0000 0.0000 1747.1213 -7504.2217 303.3787 -9251.3431 -7498.3950 300.7884 715.6459 745.6307 29392.1262 2.8173 2.7856
ENERGY: 1900000 0.0000 0.0000 0.0000 0.0000 -10530.2920 1386.2066 0.0000 0.0000 1685.5288 -7458.5566 292.6835 -9144.0854 -7456.0493 300.4821 -52.8934 14.1308 30155.8496 3.4024 3.3943
TCL: Exiting due to exit command.
