Info: SIMULATION PARAMETERS:
Info: TIMESTEP               2
Info: NUMBER OF STEPS        0
Info: STEPS PER CYCLE        10
Info: PERIODIC CELL BASIS 1  37.133 0 0
Info: PERIODIC CELL BASIS 2  0 35.847 0
Info: PERIODIC CELL BASIS 3  0 0 33.088
Info: PERIODIC CELL CENTER   0 0 0
Info: WRAPPING WATERS AROUND PERIODIC BOUNDARIES ON OUTPUT.
Info: WRAPPING ALL CLUSTERS AROUND PERIODIC BOUNDARIES ON OUTPUT.
Info: FIRST LDB TIMESTEP     50
Info: LAST LDB TIMESTEP     -1
Info: HOM BACKGROUND SCALING 1
Info: PME BACKGROUND SCALING 1
Info: MIN ATOMS PER PATCH    40
Info: EMPTY PATCH LOAD       40 ATOMS
Info: INITIAL TEMPERATURE    300
Info: CENTER OF MASS MOVING INITIALLY? NO
Info: DIELECTRIC             1
Info: EXCLUDE                SCALED ONE-FOUR
Info: 1-4 ELECTROSTATICS SCALED BY 0.833333
Info: MODIFIED 1-4 VDW PARAMETERS WILL BE USED
Info: DCD FILENAME           mobley_8691603_equil.dcd
Info: DCD FREQUENCY          100000
Info: DCD FIRST STEP         100000
Info: DCD FILE WILL CONTAIN UNIT CELL DATA
Info: XST FILENAME           mobley_8691603_equil.xst
Info: XST FREQUENCY          100000
Info: NO VELOCITY DCD OUTPUT
Info: NO FORCE DCD OUTPUT
Info: OUTPUT FILENAME        mobley_8691603_equil
Info: BINARY OUTPUT FILES WILL BE USED
Info: RESTART FILENAME       mobley_8691603_equil.restart
Info: RESTART FREQUENCY      100000
Info: BINARY RESTART FILES WILL BE USED
Info: CUTOFF                 9
Info: PAIRLIST DISTANCE      11
Info: PAIRLIST SHRINK RATE   0.01
Info: PAIRLIST GROW RATE     0.01
Info: PAIRLIST TRIGGER       0.3
Info: PAIRLISTS PER CYCLE    2
Info: PAIRLISTS ENABLED
Info: MARGIN                 8
Info: HYDROGEN GROUP CUTOFF  2.5
Info: PATCH DIMENSION        21.5
Info: ENERGY OUTPUT STEPS    100000
Info: ENERGY EVALUATION STEPS    100000
Info: OUTPUT ENERGY PRECISION 4
Info: CROSSTERM ENERGY INCLUDED IN DIHEDRAL
Info: TIMING OUTPUT STEPS    1000000
Info: PRESSURE OUTPUT STEPS  100000
Info: FIXED ATOMS ACTIVE
Info: LANGEVIN DYNAMICS ACTIVE
Info: LANGEVIN TEMPERATURE   30
Info: LANGEVIN USING BBK INTEGRATOR
Info: LANGEVIN DAMPING COEFFICIENT IS 1 INVERSE PS
Info: LANGEVIN DYNAMICS APPLIED TO HYDROGENS
Info: LANGEVIN PISTON PRESSURE CONTROL ACTIVE
Info:        TARGET PRESSURE IS 1.01325 BAR
Info:     OSCILLATION PERIOD IS 50 FS
Info:             DECAY TIME IS 25 FS
Info:     PISTON TEMPERATURE IS 300 K
Info:       PRESSURE CONTROL IS GROUP-BASED
Info:    INITIAL STRAIN RATE IS 0 0 0
Info:       CELL FLUCTUATION IS ISOTROPIC
Info: PARTICLE MESH EWALD (PME) ACTIVE
Info: PME TOLERANCE               1e-06
Info: PME EWALD COEFFICIENT       0.348832
Info: PME INTERPOLATION ORDER     4
Info: PME GRID DIMENSIONS         40 36 36
Info: PME MAXIMUM GRID SPACING    1
Info: FULL ELECTROSTATIC EVALUATION FREQUENCY      2
Info: USING VERLET I (r-RESPA) MTS SCHEME.
Info: C1 SPLITTING OF LONG RANGE ELECTROSTATICS
Info: PLACING ATOMS IN PATCHES BY HYDROGEN GROUPS
Info: RIGID BONDS TO HYDROGEN : ALL
Info:         ERROR TOLERANCE : 1e-08
Info:          MAX ITERATIONS : 100
Info: RIGID WATER USING SETTLE ALGORITHM
Info: RANDOM NUMBER SEED     1743739237
Info: USE HYDROGEN BONDS?    NO
Info: Using AMBER format force field!
Info: AMBER PARM FILE        mobley_8691603.prmtop
Info: COORDINATE PDB         mobley_8691603.pdb
Info: Exclusions will be read from PARM file!
Info: SCNB (VDW SCALING)     2
Info: USING ARITHMETIC MEAN TO COMBINE L-J SIGMA PARAMETERS
Info: BINARY COORDINATES     mobley_8691603_min.coor
Info: SUMMARY OF PARAMETERS:
Info: 8 BONDS
Info: 7 ANGLES
Info:   7 HARMONIC
Info:   0 COSINE-BASED
Info: 4 DIHEDRAL
Info: 0 IMPROPER
Info: 0 CROSSTERM
Info: 0 VDW
Info: 28 VDW_PAIRS
Info: 0 NBTHOLE_PAIRS
Info: STRUCTURE SUMMARY:
Info: 2908 ATOMS
Info: 2908 BONDS
Info: 25 ANGLES
Info: 38 DIHEDRALS
Info: 0 IMPROPERS
Info: 0 CROSSTERMS
Info: 2962 EXCLUSIONS
Info: 16 FIXED ATOMS
Info: 2900 RIGID BONDS
Info: 8 RIGID BONDS BETWEEN FIXED ATOMS
Info: 5784 DEGREES OF FREEDOM
Info: 972 HYDROGEN GROUPS
Info: 4 ATOMS IN LARGEST HYDROGEN GROUP
Info: 972 MIGRATION GROUPS
Info: 4 ATOMS IN LARGEST MIGRATION GROUP
Info: 8 HYDROGEN GROUPS WITH ALL ATOMS FIXED
Info: TOTAL MASS = 17475.6 amu
Info: TOTAL CHARGE = -3.35276e-08 e
Info: MASS DENSITY = 0.658881 g/cm^3
Info: ATOM DENSITY = 0.0660254 atoms/A^3
Info: ADDED 0 IMPLICIT EXCLUSIONS
Info: NONBONDED TABLE R-SQUARED SPACING: 0.0625
Info: NONBONDED TABLE SIZE: 705 POINTS
Info: REMOVING COM VELOCITY 0.0222844 -0.0115411 0.00494731
TCL: Running for 100000 steps
ETITLE: TS BOND ANGLE DIHED IMPRP ELECT VDW BOUNDARY MISC KINETIC TOTAL TEMP POTENTIAL TOTAL3 TEMPAVG PRESSURE GPRESSURE VOLUME PRESSAVG GPRESSAVG
ENERGY: 0 0.0000 0.0000 0.0000 0.0000 -13482.9551 2358.5323 0.0000 0.0000 1702.9499 -9421.4729 296.3221 -11124.4228 -9421.1763 296.3221 412.9525 437.0876 44043.6569 412.9525 437.0876
ENERGY: 100000 0.0000 0.0000 0.0000 0.0000 -13975.7143 2372.0583 0.0000 0.0000 175.2654 -11428.3905 30.4971 -11603.6560 -11427.6812 30.9556 -451.0822 -387.5761 28225.8375 3.1578 3.1422
TCL: Running 100000 steps at 60 kelvin.
TCL: Setting parameter langevinTemp to 60
TCL: Running for 100000 steps
ETITLE: TS BOND ANGLE DIHED IMPRP ELECT VDW BOUNDARY MISC KINETIC TOTAL TEMP POTENTIAL TOTAL3 TEMPAVG PRESSURE GPRESSURE VOLUME PRESSAVG GPRESSAVG
ENERGY: 100000 0.0000 0.0000 0.0000 0.0000 -13975.7143 2372.0583 0.0000 0.0000 175.1802 -11428.4758 30.4823 -11603.6560 -11428.0449 30.4823 -432.0053 -387.5034 28225.8375 -432.0053 -387.5034
ENERGY: 200000 0.0000 0.0000 0.0000 0.0000 -14037.7052 2476.2183 0.0000 0.0000 353.7836 -11207.7032 61.5602 -11561.4868 -11207.0286 59.9199 766.1345 848.8330 27890.9802 5.7810 5.7387
TCL: Running 100000 steps at 90 kelvin.
TCL: Setting parameter langevinTemp to 90
TCL: Running for 100000 steps
ETITLE: TS BOND ANGLE DIHED IMPRP ELECT VDW BOUNDARY MISC KINETIC TOTAL TEMP POTENTIAL TOTAL3 TEMPAVG PRESSURE GPRESSURE VOLUME PRESSAVG GPRESSAVG
ENERGY: 200000 0.0000 0.0000 0.0000 0.0000 -14037.7052 2476.2183 0.0000 0.0000 353.6122 -11207.8746 61.5303 -11561.4868 -11207.2208 61.5303 791.0191 848.8649 27890.9802 791.0191 848.8649
ENERGY: 300000 0.0000 0.0000 0.0000 0.0000 -13760.7662 2309.9478 0.0000 0.0000 501.2928 -10949.5255 87.2275 -11450.8184 -10948.0062 89.7226 -258.6494 -206.8009 28117.2754 2.8014 2.8887
TCL: Running 100000 steps at 120 kelvin.
TCL: Setting parameter langevinTemp to 120
TCL: Running for 100000 steps
ETITLE: TS BOND ANGLE DIHED IMPRP ELECT VDW BOUNDARY MISC KINETIC TOTAL TEMP POTENTIAL TOTAL3 TEMPAVG PRESSURE GPRESSURE VOLUME PRESSAVG GPRESSAVG
ENERGY: 300000 0.0000 0.0000 0.0000 0.0000 -13760.7662 2309.9478 0.0000 0.0000 501.0416 -10949.7768 87.1838 -11450.8184 -10948.5825 87.1838 -273.5833 -207.0663 28117.2754 -273.5833 -207.0663
ENERGY: 400000 0.0000 0.0000 0.0000 0.0000 -13572.1482 2258.0246 0.0000 0.0000 704.2982 -10609.8254 122.5515 -11314.1235 -10608.4682 119.8285 -229.6110 -196.5977 28382.1824 2.9767 2.8252
TCL: Running 100000 steps at 150 kelvin.
TCL: Setting parameter langevinTemp to 150
TCL: Running for 100000 steps
ETITLE: TS BOND ANGLE DIHED IMPRP ELECT VDW BOUNDARY MISC KINETIC TOTAL TEMP POTENTIAL TOTAL3 TEMPAVG PRESSURE GPRESSURE VOLUME PRESSAVG GPRESSAVG
ENERGY: 400000 0.0000 0.0000 0.0000 0.0000 -13572.1482 2258.0246 0.0000 0.0000 703.9432 -10610.1804 122.4897 -11314.1235 -10608.9197 122.4897 -257.1542 -196.0755 28382.1824 -257.1542 -196.0755
ENERGY: 500000 0.0000 0.0000 0.0000 0.0000 -13387.8415 2223.9727 0.0000 0.0000 847.9502 -10315.9187 147.5477 -11163.8689 -10315.3824 149.8509 -136.6554 -52.1658 28503.9023 3.5886 3.3873
TCL: Running 100000 steps at 180 kelvin.
TCL: Setting parameter langevinTemp to 180
TCL: Running for 100000 steps
ETITLE: TS BOND ANGLE DIHED IMPRP ELECT VDW BOUNDARY MISC KINETIC TOTAL TEMP POTENTIAL TOTAL3 TEMPAVG PRESSURE GPRESSURE VOLUME PRESSAVG GPRESSAVG
ENERGY: 500000 0.0000 0.0000 0.0000 0.0000 -13387.8415 2223.9727 0.0000 0.0000 847.5305 -10316.3384 147.4747 -11163.8689 -10314.6367 147.4747 -98.5301 -53.5101 28503.9023 -98.5301 -53.5101
ENERGY: 600000 0.0000 0.0000 0.0000 0.0000 -12963.4692 2122.4625 0.0000 0.0000 1035.5562 -9805.4504 180.1921 -10841.0066 -9803.3321 179.8123 579.2347 588.1921 28290.2040 2.4182 2.3532
TCL: Running 100000 steps at 210 kelvin.
TCL: Setting parameter langevinTemp to 210
TCL: Running for 100000 steps
ETITLE: TS BOND ANGLE DIHED IMPRP ELECT VDW BOUNDARY MISC KINETIC TOTAL TEMP POTENTIAL TOTAL3 TEMPAVG PRESSURE GPRESSURE VOLUME PRESSAVG GPRESSAVG
ENERGY: 600000 0.0000 0.0000 0.0000 0.0000 -12963.4692 2122.4625 0.0000 0.0000 1035.0567 -9805.9499 180.1052 -10841.0066 -9804.2417 180.1052 530.2072 588.5543 28290.2040 530.2072 588.5543
ENERGY: 700000 0.0000 0.0000 0.0000 0.0000 -12250.5688 1861.6033 0.0000 0.0000 1200.9297 -9188.0359 208.9679 -10388.9655 -9185.6522 209.6996 194.8721 330.1059 28027.3892 3.0425 2.9317
TCL: Running 100000 steps at 240 kelvin.
TCL: Setting parameter langevinTemp to 240
TCL: Running for 100000 steps
ETITLE: TS BOND ANGLE DIHED IMPRP ELECT VDW BOUNDARY MISC KINETIC TOTAL TEMP POTENTIAL TOTAL3 TEMPAVG PRESSURE GPRESSURE VOLUME PRESSAVG GPRESSAVG
ENERGY: 700000 0.0000 0.0000 0.0000 0.0000 -12250.5688 1861.6033 0.0000 0.0000 1200.3270 -9188.6385 208.8631 -10388.9655 -9186.3100 208.8631 260.0127 328.7636 28027.3892 260.0127 328.7636
ENERGY: 800000 0.0000 0.0000 0.0000 0.0000 -11662.6925 1745.9473 0.0000 0.0000 1366.9832 -8549.7620 237.8621 -9916.7452 -8544.4108 240.0146 527.7938 583.8174 28744.8249 3.2744 3.2880
TCL: Running 100000 steps at 270 kelvin.
TCL: Setting parameter langevinTemp to 270
TCL: Running for 100000 steps
ETITLE: TS BOND ANGLE DIHED IMPRP ELECT VDW BOUNDARY MISC KINETIC TOTAL TEMP POTENTIAL TOTAL3 TEMPAVG PRESSURE GPRESSURE VOLUME PRESSAVG GPRESSAVG
ENERGY: 800000 0.0000 0.0000 0.0000 0.0000 -11662.6925 1745.9473 0.0000 0.0000 1366.2689 -8550.4764 237.7378 -9916.7452 -8548.5025 237.7378 509.1403 584.6750 28744.8249 509.1403 584.6750
ENERGY: 900000 0.0000 0.0000 0.0000 0.0000 -11051.5762 1504.2766 0.0000 0.0000 1520.7775 -8026.5221 264.6231 -9547.2996 -8023.8680 269.2247 -304.9412 -278.6242 29270.0756 3.6580 3.6747
TCL: Running 1000000 steps at 300 kelvin.
TCL: Setting parameter langevinTemp to 300
TCL: Running for 1000000 steps
ETITLE: TS BOND ANGLE DIHED IMPRP ELECT VDW BOUNDARY MISC KINETIC TOTAL TEMP POTENTIAL TOTAL3 TEMPAVG PRESSURE GPRESSURE VOLUME PRESSAVG GPRESSAVG
ENERGY: 900000 0.0000 0.0000 0.0000 0.0000 -11051.5762 1504.2766 0.0000 0.0000 1520.0091 -8027.2905 264.4894 -9547.2996 -8025.1144 264.4894 -351.5503 -279.8638 29270.0756 -351.5503 -279.8638
ENERGY: 1100000 0.0000 0.0000 0.0000 0.0000 -10510.0179 1332.1404 0.0000 0.0000 1783.0487 -7394.8289 310.2596 -9177.8776 -7390.5838 300.3938 -368.2539 -345.2569 29652.0832 2.6233 2.5127
ENERGY: 1300000 0.0000 0.0000 0.0000 0.0000 -10619.1424 1481.4779 0.0000 0.0000 1753.3160 -7384.3485 305.0860 -9137.6645 -7381.2735 300.5192 812.7336 894.1294 29630.5880 3.7822 3.6817
ENERGY: 1500000 0.0000 0.0000 0.0000 0.0000 -10784.6972 1546.5546 0.0000 0.0000 1701.7113 -7536.4313 296.1065 -9238.1426 -7533.2685 300.5769 753.2215 828.7543 29621.7676 1.8842 1.7637
ENERGY: 1700000 0.0000 0.0000 0.0000 0.0000 -10542.7914 1449.3239 0.0000 0.0000 1715.7973 -7377.6703 298.5576 -9093.4675 -7373.0708 300.3052 191.8753 331.6365 30110.1065 3.7082 3.6413
ENERGY: 1900000 0.0000 0.0000 0.0000 0.0000 -10631.5251 1382.3356 0.0000 0.0000 1736.7620 -7512.4276 302.2055 -9249.1896 -7509.3627 300.1248 -187.2633 -177.7225 29366.5075 2.9311 2.9084
TCL: Exiting due to exit command.
