Info: SIMULATION PARAMETERS:
Info: TIMESTEP               2
Info: NUMBER OF STEPS        0
Info: STEPS PER CYCLE        10
Info: PERIODIC CELL BASIS 1  37.38 0 0
Info: PERIODIC CELL BASIS 2  0 35.411 0
Info: PERIODIC CELL BASIS 3  0 0 33.27
Info: PERIODIC CELL CENTER   0 0 0
Info: WRAPPING WATERS AROUND PERIODIC BOUNDARIES ON OUTPUT.
Info: WRAPPING ALL CLUSTERS AROUND PERIODIC BOUNDARIES ON OUTPUT.
Info: FIRST LDB TIMESTEP     50
Info: LAST LDB TIMESTEP     -1
Info: HOM BACKGROUND SCALING 1
Info: PME BACKGROUND SCALING 1
Info: MIN ATOMS PER PATCH    40
Info: EMPTY PATCH LOAD       40 ATOMS
Info: INITIAL TEMPERATURE    300
Info: CENTER OF MASS MOVING INITIALLY? NO
Info: DIELECTRIC             1
Info: EXCLUDE                SCALED ONE-FOUR
Info: 1-4 ELECTROSTATICS SCALED BY 0.833333
Info: MODIFIED 1-4 VDW PARAMETERS WILL BE USED
Info: DCD FILENAME           mobley_2354112_equil.dcd
Info: DCD FREQUENCY          100000
Info: DCD FIRST STEP         100000
Info: DCD FILE WILL CONTAIN UNIT CELL DATA
Info: XST FILENAME           mobley_2354112_equil.xst
Info: XST FREQUENCY          100000
Info: NO VELOCITY DCD OUTPUT
Info: NO FORCE DCD OUTPUT
Info: OUTPUT FILENAME        mobley_2354112_equil
Info: BINARY OUTPUT FILES WILL BE USED
Info: RESTART FILENAME       mobley_2354112_equil.restart
Info: RESTART FREQUENCY      100000
Info: BINARY RESTART FILES WILL BE USED
Info: CUTOFF                 9
Info: PAIRLIST DISTANCE      11
Info: PAIRLIST SHRINK RATE   0.01
Info: PAIRLIST GROW RATE     0.01
Info: PAIRLIST TRIGGER       0.3
Info: PAIRLISTS PER CYCLE    2
Info: PAIRLISTS ENABLED
Info: MARGIN                 8
Info: HYDROGEN GROUP CUTOFF  2.5
Info: PATCH DIMENSION        21.5
Info: ENERGY OUTPUT STEPS    100000
Info: ENERGY EVALUATION STEPS    100000
Info: OUTPUT ENERGY PRECISION 4
Info: CROSSTERM ENERGY INCLUDED IN DIHEDRAL
Info: TIMING OUTPUT STEPS    1000000
Info: PRESSURE OUTPUT STEPS  100000
Info: FIXED ATOMS ACTIVE
Info: LANGEVIN DYNAMICS ACTIVE
Info: LANGEVIN TEMPERATURE   30
Info: LANGEVIN USING BBK INTEGRATOR
Info: LANGEVIN DAMPING COEFFICIENT IS 1 INVERSE PS
Info: LANGEVIN DYNAMICS APPLIED TO HYDROGENS
Info: LANGEVIN PISTON PRESSURE CONTROL ACTIVE
Info:        TARGET PRESSURE IS 1.01325 BAR
Info:     OSCILLATION PERIOD IS 50 FS
Info:             DECAY TIME IS 25 FS
Info:     PISTON TEMPERATURE IS 300 K
Info:       PRESSURE CONTROL IS GROUP-BASED
Info:    INITIAL STRAIN RATE IS 0 0 0
Info:       CELL FLUCTUATION IS ISOTROPIC
Info: PARTICLE MESH EWALD (PME) ACTIVE
Info: PME TOLERANCE               1e-06
Info: PME EWALD COEFFICIENT       0.348832
Info: PME INTERPOLATION ORDER     4
Info: PME GRID DIMENSIONS         40 36 36
Info: PME MAXIMUM GRID SPACING    1
Info: FULL ELECTROSTATIC EVALUATION FREQUENCY      2
Info: USING VERLET I (r-RESPA) MTS SCHEME.
Info: C1 SPLITTING OF LONG RANGE ELECTROSTATICS
Info: PLACING ATOMS IN PATCHES BY HYDROGEN GROUPS
Info: RIGID BONDS TO HYDROGEN : ALL
Info:         ERROR TOLERANCE : 1e-08
Info:          MAX ITERATIONS : 100
Info: RIGID WATER USING SETTLE ALGORITHM
Info: RANDOM NUMBER SEED     1744094251
Info: USE HYDROGEN BONDS?    NO
Info: Using AMBER format force field!
Info: AMBER PARM FILE        mobley_2354112.prmtop
Info: COORDINATE PDB         mobley_2354112.pdb
Info: Exclusions will be read from PARM file!
Info: SCNB (VDW SCALING)     2
Info: USING ARITHMETIC MEAN TO COMBINE L-J SIGMA PARAMETERS
Info: BINARY COORDINATES     mobley_2354112_min.coor
Info: SUMMARY OF PARAMETERS:
Info: 9 BONDS
Info: 9 ANGLES
Info:   9 HARMONIC
Info:   0 COSINE-BASED
Info: 6 DIHEDRAL
Info: 0 IMPROPER
Info: 0 CROSSTERM
Info: 0 VDW
Info: 28 VDW_PAIRS
Info: 0 NBTHOLE_PAIRS
Info: STRUCTURE SUMMARY:
Info: 2971 ATOMS
Info: 2971 BONDS
Info: 31 ANGLES
Info: 47 DIHEDRALS
Info: 0 IMPROPERS
Info: 0 CROSSTERMS
Info: 3040 EXCLUSIONS
Info: 19 FIXED ATOMS
Info: 2962 RIGID BONDS
Info: 10 RIGID BONDS BETWEEN FIXED ATOMS
Info: 5904 DEGREES OF FREEDOM
Info: 993 HYDROGEN GROUPS
Info: 4 ATOMS IN LARGEST HYDROGEN GROUP
Info: 993 MIGRATION GROUPS
Info: 4 ATOMS IN LARGEST MIGRATION GROUP
Info: 9 HYDROGEN GROUPS WITH ALL ATOMS FIXED
Info: TOTAL MASS = 17849.9 amu
Info: TOTAL CHARGE = -9.99719e-05 e
Info: MASS DENSITY = 0.673077 g/cm^3
Info: ATOM DENSITY = 0.067464 atoms/A^3
Info: ADDED 0 IMPLICIT EXCLUSIONS
Info: NONBONDED TABLE R-SQUARED SPACING: 0.0625
Info: NONBONDED TABLE SIZE: 705 POINTS
Info: REMOVING COM VELOCITY -0.110294 0.0598229 -0.0475226
TCL: Running for 100000 steps
ETITLE: TS BOND ANGLE DIHED IMPRP ELECT VDW BOUNDARY MISC KINETIC TOTAL TEMP POTENTIAL TOTAL3 TEMPAVG PRESSURE GPRESSURE VOLUME PRESSAVG GPRESSAVG
ENERGY: 0 0.0000 0.0000 0.0000 0.0000 -13701.7801 2375.2034 0.0000 0.0000 1768.1968 -9558.3799 301.4218 -11326.5767 -9558.0495 301.4218 354.6967 389.8599 44038.2740 354.6967 389.8599
ENERGY: 100000 0.0000 0.0000 0.0000 0.0000 -14366.6730 2502.7687 0.0000 0.0000 181.2422 -11682.6620 30.8961 -11863.9042 -11682.1862 30.9458 145.2306 177.4174 28978.8421 4.4684 4.4529
TCL: Running 100000 steps at 60 kelvin.
TCL: Setting parameter langevinTemp to 60
TCL: Running for 100000 steps
ETITLE: TS BOND ANGLE DIHED IMPRP ELECT VDW BOUNDARY MISC KINETIC TOTAL TEMP POTENTIAL TOTAL3 TEMPAVG PRESSURE GPRESSURE VOLUME PRESSAVG GPRESSAVG
ENERGY: 100000 0.0000 0.0000 0.0000 0.0000 -14366.6730 2502.7687 0.0000 0.0000 181.1547 -11682.7495 30.8812 -11863.9042 -11682.4193 30.8812 126.6154 177.6337 28978.8421 126.6154 177.6337
ENERGY: 200000 0.0000 0.0000 0.0000 0.0000 -14246.0438 2480.6259 0.0000 0.0000 356.6236 -11408.7943 60.7931 -11765.4179 -11407.6336 59.8720 383.3886 438.9108 29013.7474 3.3138 3.3247
TCL: Running 100000 steps at 90 kelvin.
TCL: Setting parameter langevinTemp to 90
TCL: Running for 100000 steps
ETITLE: TS BOND ANGLE DIHED IMPRP ELECT VDW BOUNDARY MISC KINETIC TOTAL TEMP POTENTIAL TOTAL3 TEMPAVG PRESSURE GPRESSURE VOLUME PRESSAVG GPRESSAVG
ENERGY: 200000 0.0000 0.0000 0.0000 0.0000 -14246.0438 2480.6259 0.0000 0.0000 356.4430 -11408.9749 60.7623 -11765.4179 -11408.2575 60.7623 380.6851 439.5351 29013.7474 380.6851 439.5351
ENERGY: 300000 0.0000 0.0000 0.0000 0.0000 -13863.2264 2170.9557 0.0000 0.0000 547.3619 -11144.9088 93.3079 -11692.2707 -11142.8006 90.0410 -1940.4890 -1910.8985 29344.6534 3.3700 3.4335
TCL: Running 100000 steps at 120 kelvin.
TCL: Setting parameter langevinTemp to 120
TCL: Running for 100000 steps
ETITLE: TS BOND ANGLE DIHED IMPRP ELECT VDW BOUNDARY MISC KINETIC TOTAL TEMP POTENTIAL TOTAL3 TEMPAVG PRESSURE GPRESSURE VOLUME PRESSAVG GPRESSAVG
ENERGY: 300000 0.0000 0.0000 0.0000 0.0000 -13863.2264 2170.9557 0.0000 0.0000 547.1037 -11145.1670 93.2639 -11692.2707 -11143.6842 93.2639 -1954.7610 -1910.3860 29344.6534 -1954.7610 -1910.3860
ENERGY: 400000 0.0000 0.0000 0.0000 0.0000 -14002.6937 2450.4953 0.0000 0.0000 705.9385 -10846.2599 120.3402 -11552.1984 -10844.7843 120.1103 1013.9960 1057.9232 28745.8690 4.1420 4.0652
TCL: Running 100000 steps at 150 kelvin.
TCL: Setting parameter langevinTemp to 150
TCL: Running for 100000 steps
ETITLE: TS BOND ANGLE DIHED IMPRP ELECT VDW BOUNDARY MISC KINETIC TOTAL TEMP POTENTIAL TOTAL3 TEMPAVG PRESSURE GPRESSURE VOLUME PRESSAVG GPRESSAVG
ENERGY: 400000 0.0000 0.0000 0.0000 0.0000 -14002.6937 2450.4953 0.0000 0.0000 705.5844 -10846.6140 120.2799 -11552.1984 -10845.4246 120.2799 1002.1311 1057.8084 28745.8690 1002.1311 1057.8084
ENERGY: 500000 0.0000 0.0000 0.0000 0.0000 -13595.2134 2203.5692 0.0000 0.0000 878.2941 -10513.3501 149.7214 -11391.6442 -10510.9838 149.9752 -428.9879 -346.8773 28921.0351 3.9014 3.9762
TCL: Running 100000 steps at 180 kelvin.
TCL: Setting parameter langevinTemp to 180
TCL: Running for 100000 steps
ETITLE: TS BOND ANGLE DIHED IMPRP ELECT VDW BOUNDARY MISC KINETIC TOTAL TEMP POTENTIAL TOTAL3 TEMPAVG PRESSURE GPRESSURE VOLUME PRESSAVG GPRESSAVG
ENERGY: 500000 0.0000 0.0000 0.0000 0.0000 -13595.2134 2203.5692 0.0000 0.0000 877.8261 -10513.8181 149.6417 -11391.6442 -10512.3486 149.6417 -398.4332 -347.4856 28921.0351 -398.4332 -347.4856
ENERGY: 600000 0.0000 0.0000 0.0000 0.0000 -13165.7825 2066.2349 0.0000 0.0000 1058.3932 -10041.1544 180.4227 -11099.5476 -10036.7887 179.4940 -833.4338 -744.4085 29431.4156 3.8901 3.9113
TCL: Running 100000 steps at 210 kelvin.
TCL: Setting parameter langevinTemp to 210
TCL: Running for 100000 steps
ETITLE: TS BOND ANGLE DIHED IMPRP ELECT VDW BOUNDARY MISC KINETIC TOTAL TEMP POTENTIAL TOTAL3 TEMPAVG PRESSURE GPRESSURE VOLUME PRESSAVG GPRESSAVG
ENERGY: 600000 0.0000 0.0000 0.0000 0.0000 -13165.7825 2066.2349 0.0000 0.0000 1057.8813 -10041.6663 180.3354 -11099.5476 -10039.4928 180.3354 -805.7140 -743.3425 29431.4156 -805.7140 -743.3425
ENERGY: 700000 0.0000 0.0000 0.0000 0.0000 -12598.3596 1952.8165 0.0000 0.0000 1220.6776 -9424.8656 208.0870 -10645.5432 -9421.6095 209.7682 263.6705 375.4276 28860.1212 4.5155 4.5104
TCL: Running 100000 steps at 240 kelvin.
TCL: Setting parameter langevinTemp to 240
TCL: Running for 100000 steps
ETITLE: TS BOND ANGLE DIHED IMPRP ELECT VDW BOUNDARY MISC KINETIC TOTAL TEMP POTENTIAL TOTAL3 TEMPAVG PRESSURE GPRESSURE VOLUME PRESSAVG GPRESSAVG
ENERGY: 700000 0.0000 0.0000 0.0000 0.0000 -12598.3596 1952.8165 0.0000 0.0000 1220.0755 -9425.4677 207.9844 -10645.5432 -9423.2569 207.9844 298.2317 374.3059 28860.1212 298.2317 374.3059
ENERGY: 800000 0.0000 0.0000 0.0000 0.0000 -12027.8117 1813.1795 0.0000 0.0000 1409.8570 -8804.7752 240.3362 -10214.6322 -8803.5702 239.6084 594.0457 694.9683 29236.4507 4.9375 4.8775
TCL: Running 100000 steps at 270 kelvin.
TCL: Setting parameter langevinTemp to 270
TCL: Running for 100000 steps
ETITLE: TS BOND ANGLE DIHED IMPRP ELECT VDW BOUNDARY MISC KINETIC TOTAL TEMP POTENTIAL TOTAL3 TEMPAVG PRESSURE GPRESSURE VOLUME PRESSAVG GPRESSAVG
ENERGY: 800000 0.0000 0.0000 0.0000 0.0000 -12027.8117 1813.1795 0.0000 0.0000 1409.1264 -8805.5058 240.2116 -10214.6322 -8803.1140 240.2116 623.3156 692.5063 29236.4507 623.3156 692.5063
ENERGY: 900000 0.0000 0.0000 0.0000 0.0000 -11232.1685 1505.6360 0.0000 0.0000 1569.0964 -8157.4361 267.4814 -9726.5325 -8153.0485 269.6451 -702.2458 -630.9090 30310.9437 3.2491 3.1203
TCL: Running 1000000 steps at 300 kelvin.
TCL: Setting parameter langevinTemp to 300
TCL: Running for 1000000 steps
ETITLE: TS BOND ANGLE DIHED IMPRP ELECT VDW BOUNDARY MISC KINETIC TOTAL TEMP POTENTIAL TOTAL3 TEMPAVG PRESSURE GPRESSURE VOLUME PRESSAVG GPRESSAVG
ENERGY: 900000 0.0000 0.0000 0.0000 0.0000 -11232.1685 1505.6360 0.0000 0.0000 1568.3123 -8158.2201 267.3478 -9726.5325 -8155.7585 267.3478 -726.5661 -630.8293 30310.9437 -726.5661 -630.8293
ENERGY: 1100000 0.0000 0.0000 0.0000 0.0000 -10723.3747 1343.2183 0.0000 0.0000 1769.3780 -7610.7784 301.6231 -9380.1564 -7604.2933 300.0640 -831.1593 -721.3446 30503.8944 3.9816 3.9162
ENERGY: 1300000 0.0000 0.0000 0.0000 0.0000 -10883.5227 1440.0050 0.0000 0.0000 1747.7933 -7695.7244 297.9436 -9443.5177 -7697.2233 300.0022 -233.8900 -158.6892 30431.4006 2.4882 2.4099
ENERGY: 1500000 0.0000 0.0000 0.0000 0.0000 -10752.8267 1402.1167 0.0000 0.0000 1728.8958 -7621.8142 294.7222 -9350.7101 -7620.0884 299.9582 -601.3683 -498.5959 31046.9744 3.1704 3.0314
ENERGY: 1700000 0.0000 0.0000 0.0000 0.0000 -10868.9220 1445.4758 0.0000 0.0000 1780.6947 -7642.7515 303.5523 -9423.4462 -7637.4856 300.2838 -91.9596 17.0914 30493.1711 2.4696 2.4256
ENERGY: 1900000 0.0000 0.0000 0.0000 0.0000 -10738.2304 1458.5253 0.0000 0.0000 1746.8068 -7532.8984 297.7755 -9279.7052 -7530.5838 299.6471 316.3358 399.0294 30570.6740 2.1843 2.2735
TCL: Exiting due to exit command.
