Info: SIMULATION PARAMETERS:
Info: TIMESTEP               2
Info: NUMBER OF STEPS        0
Info: STEPS PER CYCLE        10
Info: PERIODIC CELL BASIS 1  36.005 0 0
Info: PERIODIC CELL BASIS 2  0 35.779 0
Info: PERIODIC CELL BASIS 3  0 0 34.68
Info: PERIODIC CELL CENTER   0 0 0
Info: WRAPPING WATERS AROUND PERIODIC BOUNDARIES ON OUTPUT.
Info: WRAPPING ALL CLUSTERS AROUND PERIODIC BOUNDARIES ON OUTPUT.
Info: FIRST LDB TIMESTEP     50
Info: LAST LDB TIMESTEP     -1
Info: HOM BACKGROUND SCALING 1
Info: PME BACKGROUND SCALING 1
Info: MIN ATOMS PER PATCH    40
Info: EMPTY PATCH LOAD       40 ATOMS
Info: INITIAL TEMPERATURE    300
Info: CENTER OF MASS MOVING INITIALLY? NO
Info: DIELECTRIC             1
Info: EXCLUDE                SCALED ONE-FOUR
Info: 1-4 ELECTROSTATICS SCALED BY 0.833333
Info: MODIFIED 1-4 VDW PARAMETERS WILL BE USED
Info: DCD FILENAME           mobley_8048190_equil.dcd
Info: DCD FREQUENCY          100000
Info: DCD FIRST STEP         100000
Info: DCD FILE WILL CONTAIN UNIT CELL DATA
Info: XST FILENAME           mobley_8048190_equil.xst
Info: XST FREQUENCY          100000
Info: NO VELOCITY DCD OUTPUT
Info: NO FORCE DCD OUTPUT
Info: OUTPUT FILENAME        mobley_8048190_equil
Info: BINARY OUTPUT FILES WILL BE USED
Info: RESTART FILENAME       mobley_8048190_equil.restart
Info: RESTART FREQUENCY      100000
Info: BINARY RESTART FILES WILL BE USED
Info: CUTOFF                 9
Info: PAIRLIST DISTANCE      11
Info: PAIRLIST SHRINK RATE   0.01
Info: PAIRLIST GROW RATE     0.01
Info: PAIRLIST TRIGGER       0.3
Info: PAIRLISTS PER CYCLE    2
Info: PAIRLISTS ENABLED
Info: MARGIN                 8
Info: HYDROGEN GROUP CUTOFF  2.5
Info: PATCH DIMENSION        21.5
Info: ENERGY OUTPUT STEPS    100000
Info: ENERGY EVALUATION STEPS    100000
Info: OUTPUT ENERGY PRECISION 4
Info: CROSSTERM ENERGY INCLUDED IN DIHEDRAL
Info: TIMING OUTPUT STEPS    1000000
Info: PRESSURE OUTPUT STEPS  100000
Info: FIXED ATOMS ACTIVE
Info: LANGEVIN DYNAMICS ACTIVE
Info: LANGEVIN TEMPERATURE   30
Info: LANGEVIN USING BBK INTEGRATOR
Info: LANGEVIN DAMPING COEFFICIENT IS 1 INVERSE PS
Info: LANGEVIN DYNAMICS APPLIED TO HYDROGENS
Info: LANGEVIN PISTON PRESSURE CONTROL ACTIVE
Info:        TARGET PRESSURE IS 1.01325 BAR
Info:     OSCILLATION PERIOD IS 50 FS
Info:             DECAY TIME IS 25 FS
Info:     PISTON TEMPERATURE IS 300 K
Info:       PRESSURE CONTROL IS GROUP-BASED
Info:    INITIAL STRAIN RATE IS 0 0 0
Info:       CELL FLUCTUATION IS ISOTROPIC
Info: PARTICLE MESH EWALD (PME) ACTIVE
Info: PME TOLERANCE               1e-06
Info: PME EWALD COEFFICIENT       0.348832
Info: PME INTERPOLATION ORDER     4
Info: PME GRID DIMENSIONS         40 36 36
Info: PME MAXIMUM GRID SPACING    1
Info: FULL ELECTROSTATIC EVALUATION FREQUENCY      2
Info: USING VERLET I (r-RESPA) MTS SCHEME.
Info: C1 SPLITTING OF LONG RANGE ELECTROSTATICS
Info: PLACING ATOMS IN PATCHES BY HYDROGEN GROUPS
Info: RIGID BONDS TO HYDROGEN : ALL
Info:         ERROR TOLERANCE : 1e-08
Info:          MAX ITERATIONS : 100
Info: RIGID WATER USING SETTLE ALGORITHM
Info: RANDOM NUMBER SEED     1743683626
Info: USE HYDROGEN BONDS?    NO
Info: Using AMBER format force field!
Info: AMBER PARM FILE        mobley_8048190.prmtop
Info: COORDINATE PDB         mobley_8048190.pdb
Info: Exclusions will be read from PARM file!
Info: SCNB (VDW SCALING)     2
Info: USING ARITHMETIC MEAN TO COMBINE L-J SIGMA PARAMETERS
Info: BINARY COORDINATES     mobley_8048190_min.coor
Info: SUMMARY OF PARAMETERS:
Info: 7 BONDS
Info: 7 ANGLES
Info:   7 HARMONIC
Info:   0 COSINE-BASED
Info: 8 DIHEDRAL
Info: 0 IMPROPER
Info: 0 CROSSTERM
Info: 0 VDW
Info: 36 VDW_PAIRS
Info: 0 NBTHOLE_PAIRS
Info: STRUCTURE SUMMARY:
Info: 2946 ATOMS
Info: 2945 BONDS
Info: 12 ANGLES
Info: 20 DIHEDRALS
Info: 0 IMPROPERS
Info: 0 CROSSTERMS
Info: 2967 EXCLUSIONS
Info: 9 FIXED ATOMS
Info: 2942 RIGID BONDS
Info: 5 RIGID BONDS BETWEEN FIXED ATOMS
Info: 5874 DEGREES OF FREEDOM
Info: 983 HYDROGEN GROUPS
Info: 4 ATOMS IN LARGEST HYDROGEN GROUP
Info: 983 MIGRATION GROUPS
Info: 4 ATOMS IN LARGEST MIGRATION GROUP
Info: 4 HYDROGEN GROUPS WITH ALL ATOMS FIXED
Info: TOTAL MASS = 17696.7 amu
Info: TOTAL CHARGE = -1.49012e-08 e
Info: MASS DENSITY = 0.657782 g/cm^3
Info: ATOM DENSITY = 0.0659421 atoms/A^3
Info: ADDED 0 IMPLICIT EXCLUSIONS
Info: NONBONDED TABLE R-SQUARED SPACING: 0.0625
Info: NONBONDED TABLE SIZE: 705 POINTS
Info: REMOVING COM VELOCITY 0.0126436 -0.0902213 -0.162601
TCL: Running for 100000 steps
ETITLE: TS BOND ANGLE DIHED IMPRP ELECT VDW BOUNDARY MISC KINETIC TOTAL TEMP POTENTIAL TOTAL3 TEMPAVG PRESSURE GPRESSURE VOLUME PRESSAVG GPRESSAVG
ENERGY: 0 0.0000 0.0000 0.0000 0.0000 -13753.0406 2422.9678 0.0000 0.0000 1689.3501 -9640.7228 289.4517 -11330.0729 -9640.3966 289.4517 590.1229 614.9804 44675.5700 590.1229 614.9804
ENERGY: 100000 0.0000 0.0000 0.0000 0.0000 -14376.7927 2514.9473 0.0000 0.0000 174.9804 -11686.8650 29.9810 -11861.8454 -11686.4345 30.9114 311.1502 355.7858 28804.5357 5.0177 4.9895
TCL: Running 100000 steps at 60 kelvin.
TCL: Setting parameter langevinTemp to 60
TCL: Running for 100000 steps
ETITLE: TS BOND ANGLE DIHED IMPRP ELECT VDW BOUNDARY MISC KINETIC TOTAL TEMP POTENTIAL TOTAL3 TEMPAVG PRESSURE GPRESSURE VOLUME PRESSAVG GPRESSAVG
ENERGY: 100000 0.0000 0.0000 0.0000 0.0000 -14376.7927 2514.9473 0.0000 0.0000 174.8914 -11686.9540 29.9657 -11861.8454 -11686.6110 29.9657 305.1151 355.7153 28804.5357 305.1151 355.7153
ENERGY: 200000 0.0000 0.0000 0.0000 0.0000 -14140.3850 2386.3801 0.0000 0.0000 350.1773 -11403.8276 59.9991 -11754.0049 -11402.8856 59.8694 -364.5568 -280.4061 28979.3620 3.6958 3.6701
TCL: Running 100000 steps at 90 kelvin.
TCL: Setting parameter langevinTemp to 90
TCL: Running for 100000 steps
ETITLE: TS BOND ANGLE DIHED IMPRP ELECT VDW BOUNDARY MISC KINETIC TOTAL TEMP POTENTIAL TOTAL3 TEMPAVG PRESSURE GPRESSURE VOLUME PRESSAVG GPRESSAVG
ENERGY: 200000 0.0000 0.0000 0.0000 0.0000 -14140.3850 2386.3801 0.0000 0.0000 350.0015 -11404.0034 59.9689 -11754.0049 -11403.3301 59.9689 -339.1305 -280.5395 28979.3620 -339.1305 -280.5395
ENERGY: 300000 0.0000 0.0000 0.0000 0.0000 -13921.5395 2248.6111 0.0000 0.0000 515.3357 -11157.5928 88.2971 -11672.9285 -11156.0132 89.9062 -1005.9014 -928.7376 28531.0991 2.8050 2.8531
TCL: Running 100000 steps at 120 kelvin.
TCL: Setting parameter langevinTemp to 120
TCL: Running for 100000 steps
ETITLE: TS BOND ANGLE DIHED IMPRP ELECT VDW BOUNDARY MISC KINETIC TOTAL TEMP POTENTIAL TOTAL3 TEMPAVG PRESSURE GPRESSURE VOLUME PRESSAVG GPRESSAVG
ENERGY: 300000 0.0000 0.0000 0.0000 0.0000 -13921.5395 2248.6111 0.0000 0.0000 515.0672 -11157.8612 88.2511 -11672.9285 -11156.8316 88.2511 -972.4594 -928.9126 28531.0991 -972.4594 -928.9126
ENERGY: 400000 0.0000 0.0000 0.0000 0.0000 -13894.3815 2351.1570 0.0000 0.0000 722.1587 -10821.0658 123.7340 -11543.2245 -10818.9273 119.9034 393.8110 448.4748 28392.7912 4.1348 4.1126
TCL: Running 100000 steps at 150 kelvin.
TCL: Setting parameter langevinTemp to 150
TCL: Running for 100000 steps
ETITLE: TS BOND ANGLE DIHED IMPRP ELECT VDW BOUNDARY MISC KINETIC TOTAL TEMP POTENTIAL TOTAL3 TEMPAVG PRESSURE GPRESSURE VOLUME PRESSAVG GPRESSAVG
ENERGY: 400000 0.0000 0.0000 0.0000 0.0000 -13894.3815 2351.1570 0.0000 0.0000 721.8067 -10821.4178 123.6737 -11543.2245 -10820.2910 123.6737 378.4771 448.8316 28392.7912 378.4771 448.8316
ENERGY: 500000 0.0000 0.0000 0.0000 0.0000 -13715.0741 2339.1249 0.0000 0.0000 871.6596 -10504.2896 149.3494 -11375.9492 -10501.5939 149.8069 666.3539 728.2165 28793.4229 4.7097 4.6854
TCL: Running 100000 steps at 180 kelvin.
TCL: Setting parameter langevinTemp to 180
TCL: Running for 100000 steps
ETITLE: TS BOND ANGLE DIHED IMPRP ELECT VDW BOUNDARY MISC KINETIC TOTAL TEMP POTENTIAL TOTAL3 TEMPAVG PRESSURE GPRESSURE VOLUME PRESSAVG GPRESSAVG
ENERGY: 500000 0.0000 0.0000 0.0000 0.0000 -13715.0741 2339.1249 0.0000 0.0000 871.2210 -10504.7282 149.2742 -11375.9492 -10503.1085 149.2742 687.2054 728.5988 28793.4229 687.2054 728.5988
ENERGY: 600000 0.0000 0.0000 0.0000 0.0000 -13194.4457 2077.8071 0.0000 0.0000 1067.2502 -10049.3884 182.8617 -11116.6386 -10047.0608 179.5216 -488.0483 -378.0116 28898.0983 3.7035 3.9380
TCL: Running 100000 steps at 210 kelvin.
TCL: Setting parameter langevinTemp to 210
TCL: Running for 100000 steps
ETITLE: TS BOND ANGLE DIHED IMPRP ELECT VDW BOUNDARY MISC KINETIC TOTAL TEMP POTENTIAL TOTAL3 TEMPAVG PRESSURE GPRESSURE VOLUME PRESSAVG GPRESSAVG
ENERGY: 600000 0.0000 0.0000 0.0000 0.0000 -13194.4457 2077.8071 0.0000 0.0000 1066.7404 -10049.8982 182.7743 -11116.6386 -10047.6214 182.7743 -451.9221 -377.4395 28898.0983 -451.9221 -377.4395
ENERGY: 700000 0.0000 0.0000 0.0000 0.0000 -12468.5232 1844.4955 0.0000 0.0000 1216.6298 -9407.3979 208.4562 -10624.0277 -9405.3867 209.9676 -179.2165 -141.1607 28304.1159 3.0621 3.1339
TCL: Running 100000 steps at 240 kelvin.
TCL: Setting parameter langevinTemp to 240
TCL: Running for 100000 steps
ETITLE: TS BOND ANGLE DIHED IMPRP ELECT VDW BOUNDARY MISC KINETIC TOTAL TEMP POTENTIAL TOTAL3 TEMPAVG PRESSURE GPRESSURE VOLUME PRESSAVG GPRESSAVG
ENERGY: 700000 0.0000 0.0000 0.0000 0.0000 -12468.5232 1844.4955 0.0000 0.0000 1215.9953 -9408.0325 208.3475 -10624.0277 -9405.9357 208.3475 -218.8915 -140.8112 28304.1159 -218.8915 -140.8112
ENERGY: 800000 0.0000 0.0000 0.0000 0.0000 -11715.1751 1528.2811 0.0000 0.0000 1359.0656 -8827.8284 232.8611 -10186.8940 -8824.4830 239.6275 -1680.5064 -1629.8046 29357.3709 3.3396 3.3513
TCL: Running 100000 steps at 270 kelvin.
TCL: Setting parameter langevinTemp to 270
TCL: Running for 100000 steps
ETITLE: TS BOND ANGLE DIHED IMPRP ELECT VDW BOUNDARY MISC KINETIC TOTAL TEMP POTENTIAL TOTAL3 TEMPAVG PRESSURE GPRESSURE VOLUME PRESSAVG GPRESSAVG
ENERGY: 800000 0.0000 0.0000 0.0000 0.0000 -11715.1751 1528.2811 0.0000 0.0000 1358.3784 -8828.5156 232.7433 -10186.8940 -8825.6191 232.7433 -1708.4086 -1629.8308 29357.3709 -1708.4086 -1629.8308
ENERGY: 900000 0.0000 0.0000 0.0000 0.0000 -11302.9922 1522.8348 0.0000 0.0000 1581.0426 -8199.1147 270.8944 -9780.1574 -8194.9528 270.1598 -507.3917 -448.7529 29826.4367 6.8114 6.8638
TCL: Running 1000000 steps at 300 kelvin.
TCL: Setting parameter langevinTemp to 300
TCL: Running for 1000000 steps
ETITLE: TS BOND ANGLE DIHED IMPRP ELECT VDW BOUNDARY MISC KINETIC TOTAL TEMP POTENTIAL TOTAL3 TEMPAVG PRESSURE GPRESSURE VOLUME PRESSAVG GPRESSAVG
ENERGY: 900000 0.0000 0.0000 0.0000 0.0000 -11302.9922 1522.8348 0.0000 0.0000 1580.2498 -8199.9076 270.7585 -9780.1574 -8197.5009 270.7585 -551.1984 -449.0792 29826.4367 -551.1984 -449.0792
ENERGY: 1100000 0.0000 0.0000 0.0000 0.0000 -10891.6007 1477.6875 0.0000 0.0000 1773.4992 -7640.4140 303.8697 -9413.9132 -7637.7757 299.7956 223.5751 329.2439 29995.6233 2.6085 2.4338
ENERGY: 1300000 0.0000 0.0000 0.0000 0.0000 -10914.1178 1543.5473 0.0000 0.0000 1749.9521 -7620.6184 299.8352 -9370.5705 -7618.5732 299.6738 551.3911 641.4959 30591.2903 2.8432 2.8628
ENERGY: 1500000 0.0000 0.0000 0.0000 0.0000 -10707.5001 1449.7038 0.0000 0.0000 1717.3788 -7540.4174 294.2541 -9257.7962 -7538.2263 300.4019 70.4723 188.4648 30872.8077 3.5182 3.4371
ENERGY: 1700000 0.0000 0.0000 0.0000 0.0000 -10793.1350 1448.9210 0.0000 0.0000 1774.4393 -7569.7746 304.0308 -9344.2140 -7566.6250 300.4571 -101.3348 18.8622 30724.9479 2.5495 2.5264
ENERGY: 1900000 0.0000 0.0000 0.0000 0.0000 -10924.0331 1445.6784 0.0000 0.0000 1790.9385 -7687.4162 306.8578 -9478.3547 -7683.7161 300.2144 -387.8646 -323.5257 30416.7031 3.3961 3.4148
TCL: Exiting due to exit command.
