Info: SIMULATION PARAMETERS:
Info: TIMESTEP               2
Info: NUMBER OF STEPS        0
Info: STEPS PER CYCLE        10
Info: PERIODIC CELL BASIS 1  36.592 0 0
Info: PERIODIC CELL BASIS 2  0 34.696 0
Info: PERIODIC CELL BASIS 3  0 0 34.954
Info: PERIODIC CELL CENTER   0 0 0
Info: WRAPPING WATERS AROUND PERIODIC BOUNDARIES ON OUTPUT.
Info: WRAPPING ALL CLUSTERS AROUND PERIODIC BOUNDARIES ON OUTPUT.
Info: FIRST LDB TIMESTEP     50
Info: LAST LDB TIMESTEP     -1
Info: HOM BACKGROUND SCALING 1
Info: PME BACKGROUND SCALING 1
Info: MIN ATOMS PER PATCH    40
Info: EMPTY PATCH LOAD       40 ATOMS
Info: INITIAL TEMPERATURE    300
Info: CENTER OF MASS MOVING INITIALLY? NO
Info: DIELECTRIC             1
Info: EXCLUDE                SCALED ONE-FOUR
Info: 1-4 ELECTROSTATICS SCALED BY 0.833333
Info: MODIFIED 1-4 VDW PARAMETERS WILL BE USED
Info: DCD FILENAME           mobley_3006808_equil.dcd
Info: DCD FREQUENCY          100000
Info: DCD FIRST STEP         100000
Info: DCD FILE WILL CONTAIN UNIT CELL DATA
Info: XST FILENAME           mobley_3006808_equil.xst
Info: XST FREQUENCY          100000
Info: NO VELOCITY DCD OUTPUT
Info: NO FORCE DCD OUTPUT
Info: OUTPUT FILENAME        mobley_3006808_equil
Info: BINARY OUTPUT FILES WILL BE USED
Info: RESTART FILENAME       mobley_3006808_equil.restart
Info: RESTART FREQUENCY      100000
Info: BINARY RESTART FILES WILL BE USED
Info: CUTOFF                 9
Info: PAIRLIST DISTANCE      11
Info: PAIRLIST SHRINK RATE   0.01
Info: PAIRLIST GROW RATE     0.01
Info: PAIRLIST TRIGGER       0.3
Info: PAIRLISTS PER CYCLE    2
Info: PAIRLISTS ENABLED
Info: MARGIN                 8
Info: HYDROGEN GROUP CUTOFF  2.5
Info: PATCH DIMENSION        21.5
Info: ENERGY OUTPUT STEPS    100000
Info: ENERGY EVALUATION STEPS    100000
Info: OUTPUT ENERGY PRECISION 4
Info: CROSSTERM ENERGY INCLUDED IN DIHEDRAL
Info: TIMING OUTPUT STEPS    1000000
Info: PRESSURE OUTPUT STEPS  100000
Info: FIXED ATOMS ACTIVE
Info: LANGEVIN DYNAMICS ACTIVE
Info: LANGEVIN TEMPERATURE   30
Info: LANGEVIN USING BBK INTEGRATOR
Info: LANGEVIN DAMPING COEFFICIENT IS 1 INVERSE PS
Info: LANGEVIN DYNAMICS APPLIED TO HYDROGENS
Info: LANGEVIN PISTON PRESSURE CONTROL ACTIVE
Info:        TARGET PRESSURE IS 1.01325 BAR
Info:     OSCILLATION PERIOD IS 50 FS
Info:             DECAY TIME IS 25 FS
Info:     PISTON TEMPERATURE IS 300 K
Info:       PRESSURE CONTROL IS GROUP-BASED
Info:    INITIAL STRAIN RATE IS 0 0 0
Info:       CELL FLUCTUATION IS ISOTROPIC
Info: PARTICLE MESH EWALD (PME) ACTIVE
Info: PME TOLERANCE               1e-06
Info: PME EWALD COEFFICIENT       0.348832
Info: PME INTERPOLATION ORDER     4
Info: PME GRID DIMENSIONS         40 36 36
Info: PME MAXIMUM GRID SPACING    1
Info: FULL ELECTROSTATIC EVALUATION FREQUENCY      2
Info: USING VERLET I (r-RESPA) MTS SCHEME.
Info: C1 SPLITTING OF LONG RANGE ELECTROSTATICS
Info: PLACING ATOMS IN PATCHES BY HYDROGEN GROUPS
Info: RIGID BONDS TO HYDROGEN : ALL
Info:         ERROR TOLERANCE : 1e-08
Info:          MAX ITERATIONS : 100
Info: RIGID WATER USING SETTLE ALGORITHM
Info: RANDOM NUMBER SEED     1743674498
Info: USE HYDROGEN BONDS?    NO
Info: Using AMBER format force field!
Info: AMBER PARM FILE        mobley_3006808.prmtop
Info: COORDINATE PDB         mobley_3006808.pdb
Info: Exclusions will be read from PARM file!
Info: SCNB (VDW SCALING)     2
Info: USING ARITHMETIC MEAN TO COMBINE L-J SIGMA PARAMETERS
Info: BINARY COORDINATES     mobley_3006808_min.coor
Info: SUMMARY OF PARAMETERS:
Info: 7 BONDS
Info: 7 ANGLES
Info: 6 DIHEDRAL
Info: 0 IMPROPER
Info: 0 CROSSTERM
Info: 0 VDW
Info: 21 VDW_PAIRS
Info: 0 NBTHOLE_PAIRS
Info: STRUCTURE SUMMARY:
Info: 2967 ATOMS
Info: 2966 BONDS
Info: 13 ANGLES
Info: 19 DIHEDRALS
Info: 0 IMPROPERS
Info: 0 CROSSTERMS
Info: 2991 EXCLUSIONS
Info: 9 FIXED ATOMS
Info: 2961 RIGID BONDS
Info: 3 RIGID BONDS BETWEEN FIXED ATOMS
Info: 5916 DEGREES OF FREEDOM
Info: 992 HYDROGEN GROUPS
Info: 3 ATOMS IN LARGEST HYDROGEN GROUP
Info: 992 MIGRATION GROUPS
Info: 3 ATOMS IN LARGEST MIGRATION GROUP
Info: 6 HYDROGEN GROUPS WITH ALL ATOMS FIXED
Info: TOTAL MASS = 17863.8 amu
Info: TOTAL CHARGE = 1.11759e-07 e
Info: MASS DENSITY = 0.668453 g/cm^3
Info: ATOM DENSITY = 0.0668583 atoms/A^3
Info: ADDED 0 IMPLICIT EXCLUSIONS
Info: NONBONDED TABLE R-SQUARED SPACING: 0.0625
Info: NONBONDED TABLE SIZE: 705 POINTS
Info: REMOVING COM VELOCITY -0.0638058 -0.0386508 0.0877904
TCL: Running for 100000 steps
ETITLE: TS BOND ANGLE DIHED IMPRP ELECT VDW BOUNDARY MISC KINETIC TOTAL TEMP POTENTIAL TOTAL3 TEMPAVG PRESSURE GPRESSURE VOLUME PRESSAVG GPRESSAVG
ENERGY: 0 0.0000 0.0000 0.0000 0.0000 -13769.5842 2403.0358 0.0000 0.0000 1770.7549 -9595.7935 301.2456 -11366.5484 -9595.4287 301.2456 364.2178 393.7996 44377.4597 364.2178 393.7996
ENERGY: 100000 0.0000 0.0000 0.0000 0.0000 -14195.7339 2333.2118 0.0000 0.0000 176.1790 -11686.3430 29.9721 -11862.5221 -11685.6385 30.9298 -1199.2327 -1154.4791 29254.5006 3.1031 3.0080
TCL: Running 100000 steps at 60 kelvin.
TCL: Setting parameter langevinTemp to 60
TCL: Running for 100000 steps
ETITLE: TS BOND ANGLE DIHED IMPRP ELECT VDW BOUNDARY MISC KINETIC TOTAL TEMP POTENTIAL TOTAL3 TEMPAVG PRESSURE GPRESSURE VOLUME PRESSAVG GPRESSAVG
ENERGY: 100000 0.0000 0.0000 0.0000 0.0000 -14195.7339 2333.2118 0.0000 0.0000 176.0899 -11686.4322 29.9569 -11862.5221 -11686.0801 29.9569 -1216.2795 -1154.3692 29254.5006 -1216.2795 -1154.3692
ENERGY: 200000 0.0000 0.0000 0.0000 0.0000 -14233.6734 2417.0864 0.0000 0.0000 336.1742 -11480.4128 57.1908 -11816.5870 -11479.6090 59.9971 -145.7848 -104.6528 28685.9415 4.5711 4.6571
TCL: Running 100000 steps at 90 kelvin.
TCL: Setting parameter langevinTemp to 90
TCL: Running for 100000 steps
ETITLE: TS BOND ANGLE DIHED IMPRP ELECT VDW BOUNDARY MISC KINETIC TOTAL TEMP POTENTIAL TOTAL3 TEMPAVG PRESSURE GPRESSURE VOLUME PRESSAVG GPRESSAVG
ENERGY: 200000 0.0000 0.0000 0.0000 0.0000 -14233.6734 2417.0864 0.0000 0.0000 336.0014 -11480.5856 57.1615 -11816.5870 -11479.7896 57.1615 -161.8069 -104.1462 28685.9415 -161.8069 -104.1462
ENERGY: 300000 0.0000 0.0000 0.0000 0.0000 -14149.9082 2393.5668 0.0000 0.0000 532.9983 -11223.3431 90.6751 -11756.3414 -11222.3288 89.9835 -127.2401 -46.8389 28740.4718 6.0409 6.1477
TCL: Running 100000 steps at 120 kelvin.
TCL: Setting parameter langevinTemp to 120
TCL: Running for 100000 steps
ETITLE: TS BOND ANGLE DIHED IMPRP ELECT VDW BOUNDARY MISC KINETIC TOTAL TEMP POTENTIAL TOTAL3 TEMPAVG PRESSURE GPRESSURE VOLUME PRESSAVG GPRESSAVG
ENERGY: 300000 0.0000 0.0000 0.0000 0.0000 -14149.9082 2393.5668 0.0000 0.0000 532.7338 -11223.6075 90.6301 -11756.3414 -11222.7294 90.6301 -94.7197 -47.4305 28740.4718 -94.7197 -47.4305
ENERGY: 400000 0.0000 0.0000 0.0000 0.0000 -13880.7552 2247.5406 0.0000 0.0000 710.7908 -10922.4238 120.9216 -11633.2146 -10921.0516 119.8302 -922.2665 -840.5102 28918.9422 5.0590 4.9413
TCL: Running 100000 steps at 150 kelvin.
TCL: Setting parameter langevinTemp to 150
TCL: Running for 100000 steps
ETITLE: TS BOND ANGLE DIHED IMPRP ELECT VDW BOUNDARY MISC KINETIC TOTAL TEMP POTENTIAL TOTAL3 TEMPAVG PRESSURE GPRESSURE VOLUME PRESSAVG GPRESSAVG
ENERGY: 400000 0.0000 0.0000 0.0000 0.0000 -13880.7552 2247.5406 0.0000 0.0000 710.4177 -10922.7969 120.8582 -11633.2146 -10921.1756 120.8582 -886.8081 -841.6475 28918.9422 -886.8081 -841.6475
ENERGY: 500000 0.0000 0.0000 0.0000 0.0000 -13755.0181 2288.9309 0.0000 0.0000 879.7797 -10586.3075 149.6705 -11466.0872 -10585.1309 149.9302 98.3906 123.2596 28931.9215 2.8204 2.7647
TCL: Running 100000 steps at 180 kelvin.
TCL: Setting parameter langevinTemp to 180
TCL: Running for 100000 steps
ETITLE: TS BOND ANGLE DIHED IMPRP ELECT VDW BOUNDARY MISC KINETIC TOTAL TEMP POTENTIAL TOTAL3 TEMPAVG PRESSURE GPRESSURE VOLUME PRESSAVG GPRESSAVG
ENERGY: 500000 0.0000 0.0000 0.0000 0.0000 -13755.0181 2288.9309 0.0000 0.0000 879.3347 -10586.7525 149.5948 -11466.0872 -10585.2247 149.5948 73.2021 123.4308 28931.9215 73.2021 123.4308
ENERGY: 600000 0.0000 0.0000 0.0000 0.0000 -13306.4020 2102.9605 0.0000 0.0000 1053.6710 -10149.7705 179.2533 -11203.4415 -10147.0980 179.8886 -534.8949 -459.9397 29139.4051 3.9730 3.7727
TCL: Running 100000 steps at 210 kelvin.
TCL: Setting parameter langevinTemp to 210
TCL: Running for 100000 steps
ETITLE: TS BOND ANGLE DIHED IMPRP ELECT VDW BOUNDARY MISC KINETIC TOTAL TEMP POTENTIAL TOTAL3 TEMPAVG PRESSURE GPRESSURE VOLUME PRESSAVG GPRESSAVG
ENERGY: 600000 0.0000 0.0000 0.0000 0.0000 -13306.4020 2102.9605 0.0000 0.0000 1053.1475 -10150.2940 179.1643 -11203.4415 -10147.9389 179.1643 -525.9816 -458.7430 29139.4051 -525.9816 -458.7430
ENERGY: 700000 0.0000 0.0000 0.0000 0.0000 -12553.4588 1934.2110 0.0000 0.0000 1214.0012 -9405.2465 206.5291 -10619.2478 -9403.6132 209.6692 462.8952 519.9686 28680.0632 4.5142 4.3503
TCL: Running 100000 steps at 240 kelvin.
TCL: Setting parameter langevinTemp to 240
TCL: Running for 100000 steps
ETITLE: TS BOND ANGLE DIHED IMPRP ELECT VDW BOUNDARY MISC KINETIC TOTAL TEMP POTENTIAL TOTAL3 TEMPAVG PRESSURE GPRESSURE VOLUME PRESSAVG GPRESSAVG
ENERGY: 700000 0.0000 0.0000 0.0000 0.0000 -12553.4588 1934.2110 0.0000 0.0000 1213.3749 -9405.8729 206.4226 -10619.2478 -9403.9167 206.4226 433.7033 518.6291 28680.0632 433.7033 518.6291
ENERGY: 800000 0.0000 0.0000 0.0000 0.0000 -11687.6721 1513.2660 0.0000 0.0000 1377.9147 -8796.4914 234.4145 -10174.4061 -8792.9846 239.8548 -1815.1187 -1733.8043 29729.8626 2.7644 2.6945
TCL: Running 100000 steps at 270 kelvin.
TCL: Setting parameter langevinTemp to 270
TCL: Running for 100000 steps
ETITLE: TS BOND ANGLE DIHED IMPRP ELECT VDW BOUNDARY MISC KINETIC TOTAL TEMP POTENTIAL TOTAL3 TEMPAVG PRESSURE GPRESSURE VOLUME PRESSAVG GPRESSAVG
ENERGY: 800000 0.0000 0.0000 0.0000 0.0000 -11687.6721 1513.2660 0.0000 0.0000 1377.2032 -8797.2029 234.2935 -10174.4061 -8795.0624 234.2935 -1821.3342 -1733.1372 29729.8626 -1821.3342 -1733.1372
ENERGY: 900000 0.0000 0.0000 0.0000 0.0000 -11425.8645 1587.1057 0.0000 0.0000 1620.5474 -8218.2113 275.6919 -9838.7588 -8214.9859 270.0643 -50.5177 19.3777 29737.7182 3.1763 3.3399
TCL: Running 1000000 steps at 300 kelvin.
TCL: Setting parameter langevinTemp to 300
TCL: Running for 1000000 steps
ETITLE: TS BOND ANGLE DIHED IMPRP ELECT VDW BOUNDARY MISC KINETIC TOTAL TEMP POTENTIAL TOTAL3 TEMPAVG PRESSURE GPRESSURE VOLUME PRESSAVG GPRESSAVG
ENERGY: 900000 0.0000 0.0000 0.0000 0.0000 -11425.8645 1587.1057 0.0000 0.0000 1619.7631 -8218.9957 275.5584 -9838.7588 -8216.4975 275.5584 -72.1871 19.3028 29737.7182 -72.1871 19.3028
ENERGY: 1100000 0.0000 0.0000 0.0000 0.0000 -10835.1733 1436.0454 0.0000 0.0000 1779.0547 -7620.0732 302.6576 -9399.1279 -7618.4864 299.7889 -261.4908 -150.6375 30960.7279 2.6619 2.7148
ENERGY: 1300000 0.0000 0.0000 0.0000 0.0000 -10807.0008 1435.6093 0.0000 0.0000 1796.9401 -7574.4514 305.7003 -9371.3915 -7573.5907 300.3590 -15.9708 89.9681 30510.0440 3.3270 3.3857
ENERGY: 1500000 0.0000 0.0000 0.0000 0.0000 -10973.8435 1487.4754 0.0000 0.0000 1749.1303 -7737.2377 297.5667 -9486.3680 -7735.4700 300.7523 208.1338 319.8784 30284.5592 2.9460 3.0073
ENERGY: 1700000 0.0000 0.0000 0.0000 0.0000 -10688.2285 1384.2386 0.0000 0.0000 1748.2233 -7555.7666 297.4124 -9303.9899 -7552.6056 299.9334 -347.8037 -237.3712 30651.6696 3.1240 3.0836
ENERGY: 1900000 0.0000 0.0000 0.0000 0.0000 -10828.5714 1397.7074 0.0000 0.0000 1828.9783 -7601.8857 311.1507 -9430.8640 -7597.7467 300.1274 -685.0071 -584.2410 31093.4450 1.3208 1.3821
TCL: Exiting due to exit command.
