Info: SIMULATION PARAMETERS:
Info: TIMESTEP               2
Info: NUMBER OF STEPS        0
Info: STEPS PER CYCLE        10
Info: PERIODIC CELL BASIS 1  36.592 0 0
Info: PERIODIC CELL BASIS 2  0 34.26 0
Info: PERIODIC CELL BASIS 3  0 0 34.954
Info: PERIODIC CELL CENTER   0 0 0
Info: WRAPPING WATERS AROUND PERIODIC BOUNDARIES ON OUTPUT.
Info: WRAPPING ALL CLUSTERS AROUND PERIODIC BOUNDARIES ON OUTPUT.
Info: FIRST LDB TIMESTEP     50
Info: LAST LDB TIMESTEP     -1
Info: HOM BACKGROUND SCALING 1
Info: PME BACKGROUND SCALING 1
Info: MIN ATOMS PER PATCH    40
Info: EMPTY PATCH LOAD       40 ATOMS
Info: INITIAL TEMPERATURE    300
Info: CENTER OF MASS MOVING INITIALLY? NO
Info: DIELECTRIC             1
Info: EXCLUDE                SCALED ONE-FOUR
Info: 1-4 ELECTROSTATICS SCALED BY 0.833333
Info: MODIFIED 1-4 VDW PARAMETERS WILL BE USED
Info: DCD FILENAME           mobley_1781152_equil.dcd
Info: DCD FREQUENCY          100000
Info: DCD FIRST STEP         100000
Info: DCD FILE WILL CONTAIN UNIT CELL DATA
Info: XST FILENAME           mobley_1781152_equil.xst
Info: XST FREQUENCY          100000
Info: NO VELOCITY DCD OUTPUT
Info: NO FORCE DCD OUTPUT
Info: OUTPUT FILENAME        mobley_1781152_equil
Info: BINARY OUTPUT FILES WILL BE USED
Info: RESTART FILENAME       mobley_1781152_equil.restart
Info: RESTART FREQUENCY      100000
Info: BINARY RESTART FILES WILL BE USED
Info: CUTOFF                 9
Info: PAIRLIST DISTANCE      11
Info: PAIRLIST SHRINK RATE   0.01
Info: PAIRLIST GROW RATE     0.01
Info: PAIRLIST TRIGGER       0.3
Info: PAIRLISTS PER CYCLE    2
Info: PAIRLISTS ENABLED
Info: MARGIN                 8
Info: HYDROGEN GROUP CUTOFF  2.5
Info: PATCH DIMENSION        21.5
Info: ENERGY OUTPUT STEPS    100000
Info: ENERGY EVALUATION STEPS    100000
Info: OUTPUT ENERGY PRECISION 4
Info: CROSSTERM ENERGY INCLUDED IN DIHEDRAL
Info: TIMING OUTPUT STEPS    1000000
Info: PRESSURE OUTPUT STEPS  100000
Info: FIXED ATOMS ACTIVE
Info: LANGEVIN DYNAMICS ACTIVE
Info: LANGEVIN TEMPERATURE   30
Info: LANGEVIN USING BBK INTEGRATOR
Info: LANGEVIN DAMPING COEFFICIENT IS 1 INVERSE PS
Info: LANGEVIN DYNAMICS APPLIED TO HYDROGENS
Info: LANGEVIN PISTON PRESSURE CONTROL ACTIVE
Info:        TARGET PRESSURE IS 1.01325 BAR
Info:     OSCILLATION PERIOD IS 50 FS
Info:             DECAY TIME IS 25 FS
Info:     PISTON TEMPERATURE IS 300 K
Info:       PRESSURE CONTROL IS GROUP-BASED
Info:    INITIAL STRAIN RATE IS 0 0 0
Info:       CELL FLUCTUATION IS ISOTROPIC
Info: PARTICLE MESH EWALD (PME) ACTIVE
Info: PME TOLERANCE               1e-06
Info: PME EWALD COEFFICIENT       0.348832
Info: PME INTERPOLATION ORDER     4
Info: PME GRID DIMENSIONS         40 36 36
Info: PME MAXIMUM GRID SPACING    1
Info: FULL ELECTROSTATIC EVALUATION FREQUENCY      2
Info: USING VERLET I (r-RESPA) MTS SCHEME.
Info: C1 SPLITTING OF LONG RANGE ELECTROSTATICS
Info: PLACING ATOMS IN PATCHES BY HYDROGEN GROUPS
Info: RIGID BONDS TO HYDROGEN : ALL
Info:         ERROR TOLERANCE : 1e-08
Info:          MAX ITERATIONS : 100
Info: RIGID WATER USING SETTLE ALGORITHM
Info: RANDOM NUMBER SEED     1743764181
Info: USE HYDROGEN BONDS?    NO
Info: Using AMBER format force field!
Info: AMBER PARM FILE        mobley_1781152.prmtop
Info: COORDINATE PDB         mobley_1781152.pdb
Info: Exclusions will be read from PARM file!
Info: SCNB (VDW SCALING)     2
Info: USING ARITHMETIC MEAN TO COMBINE L-J SIGMA PARAMETERS
Info: BINARY COORDINATES     mobley_1781152_min.coor
Info: SUMMARY OF PARAMETERS:
Info: 9 BONDS
Info: 10 ANGLES
Info:   10 HARMONIC
Info:   0 COSINE-BASED
Info: 9 DIHEDRAL
Info: 0 IMPROPER
Info: 0 CROSSTERM
Info: 0 VDW
Info: 36 VDW_PAIRS
Info: 0 NBTHOLE_PAIRS
Info: STRUCTURE SUMMARY:
Info: 2957 ATOMS
Info: 2956 BONDS
Info: 34 ANGLES
Info: 42 DIHEDRALS
Info: 0 IMPROPERS
Info: 0 CROSSTERMS
Info: 3028 EXCLUSIONS
Info: 20 FIXED ATOMS
Info: 2949 RIGID BONDS
Info: 12 RIGID BONDS BETWEEN FIXED ATOMS
Info: 5874 DEGREES OF FREEDOM
Info: 987 HYDROGEN GROUPS
Info: 4 ATOMS IN LARGEST HYDROGEN GROUP
Info: 987 MIGRATION GROUPS
Info: 4 ATOMS IN LARGEST MIGRATION GROUP
Info: 8 HYDROGEN GROUPS WITH ALL ATOMS FIXED
Info: TOTAL MASS = 17753.8 amu
Info: TOTAL CHARGE = 0.000100031 e
Info: MASS DENSITY = 0.672792 g/cm^3
Info: ATOM DENSITY = 0.0674809 atoms/A^3
Info: ADDED 0 IMPLICIT EXCLUSIONS
Info: NONBONDED TABLE R-SQUARED SPACING: 0.0625
Info: NONBONDED TABLE SIZE: 705 POINTS
Info: REMOVING COM VELOCITY 0.147201 0.0781771 -0.136272
TCL: Running for 100000 steps
ETITLE: TS BOND ANGLE DIHED IMPRP ELECT VDW BOUNDARY MISC KINETIC TOTAL TEMP POTENTIAL TOTAL3 TEMPAVG PRESSURE GPRESSURE VOLUME PRESSAVG GPRESSAVG
ENERGY: 0 0.0000 0.0000 0.0000 0.0000 -13678.9452 2359.1538 0.0000 0.0000 1791.3402 -9528.4512 306.9266 -11319.7914 -9528.0868 306.9266 120.9301 154.3251 43819.7997 120.9301 154.3251
ENERGY: 100000 0.0000 0.0000 0.0000 0.0000 -14146.3488 2414.9688 0.0000 0.0000 178.1753 -11553.2047 30.5284 -11731.3800 -11552.6154 30.8499 -500.0596 -427.6335 29927.4023 4.2243 4.2230
TCL: Running 100000 steps at 60 kelvin.
TCL: Setting parameter langevinTemp to 60
TCL: Running for 100000 steps
ETITLE: TS BOND ANGLE DIHED IMPRP ELECT VDW BOUNDARY MISC KINETIC TOTAL TEMP POTENTIAL TOTAL3 TEMPAVG PRESSURE GPRESSURE VOLUME PRESSAVG GPRESSAVG
ENERGY: 100000 0.0000 0.0000 0.0000 0.0000 -14146.3488 2414.9688 0.0000 0.0000 178.0885 -11553.2915 30.5135 -11731.3800 -11552.8899 30.5135 -490.8385 -427.6893 29927.4023 -490.8385 -427.6893
ENERGY: 200000 0.0000 0.0000 0.0000 0.0000 -14179.5878 2466.8545 0.0000 0.0000 338.2481 -11374.4852 57.9551 -11712.7333 -11373.4018 59.9453 383.8986 434.2364 29055.9290 3.8320 3.8656
TCL: Running 100000 steps at 90 kelvin.
TCL: Setting parameter langevinTemp to 90
TCL: Running for 100000 steps
ETITLE: TS BOND ANGLE DIHED IMPRP ELECT VDW BOUNDARY MISC KINETIC TOTAL TEMP POTENTIAL TOTAL3 TEMPAVG PRESSURE GPRESSURE VOLUME PRESSAVG GPRESSAVG
ENERGY: 200000 0.0000 0.0000 0.0000 0.0000 -14179.5878 2466.8545 0.0000 0.0000 338.0664 -11374.6669 57.9240 -11712.7333 -11374.1793 57.9240 383.4681 434.7517 29055.9290 383.4681 434.7517
ENERGY: 300000 0.0000 0.0000 0.0000 0.0000 -13915.6759 2311.0006 0.0000 0.0000 524.8847 -11079.7906 89.9333 -11604.6753 -11078.1561 89.9538 -483.7496 -390.1339 29247.9999 4.3631 4.4106
TCL: Running 100000 steps at 120 kelvin.
TCL: Setting parameter langevinTemp to 120
TCL: Running for 100000 steps
ETITLE: TS BOND ANGLE DIHED IMPRP ELECT VDW BOUNDARY MISC KINETIC TOTAL TEMP POTENTIAL TOTAL3 TEMPAVG PRESSURE GPRESSURE VOLUME PRESSAVG GPRESSAVG
ENERGY: 300000 0.0000 0.0000 0.0000 0.0000 -13915.6759 2311.0006 0.0000 0.0000 524.6198 -11080.0556 89.8879 -11604.6753 -11078.9313 89.8879 -441.5726 -390.6872 29247.9999 -441.5726 -390.6872
ENERGY: 400000 0.0000 0.0000 0.0000 0.0000 -13923.5953 2390.5512 0.0000 0.0000 707.3691 -10825.6751 121.2000 -11533.0442 -10823.3580 120.0170 432.0026 479.8450 28967.5957 3.0134 2.9237
TCL: Running 100000 steps at 150 kelvin.
TCL: Setting parameter langevinTemp to 150
TCL: Running for 100000 steps
ETITLE: TS BOND ANGLE DIHED IMPRP ELECT VDW BOUNDARY MISC KINETIC TOTAL TEMP POTENTIAL TOTAL3 TEMPAVG PRESSURE GPRESSURE VOLUME PRESSAVG GPRESSAVG
ENERGY: 400000 0.0000 0.0000 0.0000 0.0000 -13923.5953 2390.5512 0.0000 0.0000 707.0343 -10826.0099 121.1426 -11533.0442 -10824.5141 121.1426 426.6146 480.5341 28967.5957 426.6146 480.5341
ENERGY: 500000 0.0000 0.0000 0.0000 0.0000 -13470.7889 2127.4560 0.0000 0.0000 893.7340 -10449.5989 153.1316 -11343.3329 -10447.6274 149.6216 -1012.0650 -962.8423 29169.1181 3.6857 3.6775
TCL: Running 100000 steps at 180 kelvin.
TCL: Setting parameter langevinTemp to 180
TCL: Running for 100000 steps
ETITLE: TS BOND ANGLE DIHED IMPRP ELECT VDW BOUNDARY MISC KINETIC TOTAL TEMP POTENTIAL TOTAL3 TEMPAVG PRESSURE GPRESSURE VOLUME PRESSAVG GPRESSAVG
ENERGY: 500000 0.0000 0.0000 0.0000 0.0000 -13470.7889 2127.4560 0.0000 0.0000 893.3141 -10450.0188 153.0596 -11343.3329 -10447.8560 153.0596 -1012.7626 -964.1196 29169.1181 -1012.7626 -964.1196
ENERGY: 600000 0.0000 0.0000 0.0000 0.0000 -13145.7097 2048.6419 0.0000 0.0000 1080.3041 -10016.7637 185.0983 -11097.0678 -10014.5293 179.9598 -783.6758 -693.3844 28957.2299 3.7601 3.8005
TCL: Running 100000 steps at 210 kelvin.
TCL: Setting parameter langevinTemp to 210
TCL: Running for 100000 steps
ETITLE: TS BOND ANGLE DIHED IMPRP ELECT VDW BOUNDARY MISC KINETIC TOTAL TEMP POTENTIAL TOTAL3 TEMPAVG PRESSURE GPRESSURE VOLUME PRESSAVG GPRESSAVG
ENERGY: 600000 0.0000 0.0000 0.0000 0.0000 -13145.7097 2048.6419 0.0000 0.0000 1079.7864 -10017.2814 185.0096 -11097.0678 -10015.0580 185.0096 -762.5366 -693.2154 28957.2299 -762.5366 -693.2154
ENERGY: 700000 0.0000 0.0000 0.0000 0.0000 -12542.2995 1934.5313 0.0000 0.0000 1283.1589 -9324.6092 219.8553 -10607.7681 -9320.5043 210.0497 486.8582 550.0009 28562.6904 3.8534 3.8728
TCL: Running 100000 steps at 240 kelvin.
TCL: Setting parameter langevinTemp to 240
TCL: Running for 100000 steps
ETITLE: TS BOND ANGLE DIHED IMPRP ELECT VDW BOUNDARY MISC KINETIC TOTAL TEMP POTENTIAL TOTAL3 TEMPAVG PRESSURE GPRESSURE VOLUME PRESSAVG GPRESSAVG
ENERGY: 700000 0.0000 0.0000 0.0000 0.0000 -12542.2995 1934.5313 0.0000 0.0000 1282.5597 -9325.2084 219.7526 -10607.7681 -9323.2281 219.7526 485.5811 551.2690 28562.6904 485.5811 551.2690
ENERGY: 800000 0.0000 0.0000 0.0000 0.0000 -11775.5128 1630.1316 0.0000 0.0000 1423.1961 -8722.1851 243.8491 -10145.3811 -8717.9415 239.8023 -499.8508 -477.3498 28950.7967 3.3291 3.3746
TCL: Running 100000 steps at 270 kelvin.
TCL: Setting parameter langevinTemp to 270
TCL: Running for 100000 steps
ETITLE: TS BOND ANGLE DIHED IMPRP ELECT VDW BOUNDARY MISC KINETIC TOTAL TEMP POTENTIAL TOTAL3 TEMPAVG PRESSURE GPRESSURE VOLUME PRESSAVG GPRESSAVG
ENERGY: 800000 0.0000 0.0000 0.0000 0.0000 -11775.5128 1630.1316 0.0000 0.0000 1422.5065 -8722.8746 243.7310 -10145.3811 -8720.5577 243.7310 -562.4293 -477.5101 28950.7967 -562.4293 -477.5101
ENERGY: 900000 0.0000 0.0000 0.0000 0.0000 -11244.1196 1527.1558 0.0000 0.0000 1597.2717 -8119.6921 273.6751 -9716.9637 -8116.1396 269.7619 -266.6811 -148.3233 29630.5508 1.9031 1.7669
TCL: Running 1000000 steps at 300 kelvin.
TCL: Setting parameter langevinTemp to 300
TCL: Running for 1000000 steps
ETITLE: TS BOND ANGLE DIHED IMPRP ELECT VDW BOUNDARY MISC KINETIC TOTAL TEMP POTENTIAL TOTAL3 TEMPAVG PRESSURE GPRESSURE VOLUME PRESSAVG GPRESSAVG
ENERGY: 900000 0.0000 0.0000 0.0000 0.0000 -11244.1196 1527.1558 0.0000 0.0000 1596.4763 -8120.4875 273.5388 -9716.9637 -8117.7450 273.5388 -245.8254 -147.7944 29630.5508 -245.8254 -147.7944
ENERGY: 1100000 0.0000 0.0000 0.0000 0.0000 -10784.2798 1445.7277 0.0000 0.0000 1774.7807 -7563.7714 304.0893 -9338.5521 -7560.0603 300.6608 111.5868 204.4519 30318.5098 4.2624 4.2613
ENERGY: 1300000 0.0000 0.0000 0.0000 0.0000 -10706.7536 1376.5955 0.0000 0.0000 1752.7187 -7577.4394 300.3092 -9330.1581 -7574.6103 300.4735 -689.0907 -581.6354 30789.2770 3.4847 3.5673
ENERGY: 1500000 0.0000 0.0000 0.0000 0.0000 -10748.2573 1470.6277 0.0000 0.0000 1785.6820 -7491.9477 305.9571 -9277.6296 -7488.6777 300.2175 464.1586 545.2620 30254.4860 3.1218 3.1171
ENERGY: 1700000 0.0000 0.0000 0.0000 0.0000 -10819.4878 1463.4777 0.0000 0.0000 1781.1256 -7574.8844 305.1764 -9356.0101 -7574.6434 300.4550 317.1773 409.0952 30085.5602 3.8286 3.9961
ENERGY: 1900000 0.0000 0.0000 0.0000 0.0000 -10619.3918 1353.0439 0.0000 0.0000 1767.7262 -7498.6217 302.8806 -9266.3479 -7494.4524 300.2762 -751.1284 -683.5777 31184.8315 1.9657 2.0021
TCL: Exiting due to exit command.
