Info: SIMULATION PARAMETERS:
Info: TIMESTEP               2
Info: NUMBER OF STEPS        0
Info: STEPS PER CYCLE        10
Info: PERIODIC CELL BASIS 1  36.281 0 0
Info: PERIODIC CELL BASIS 2  0 36.762 0
Info: PERIODIC CELL BASIS 3  0 0 33.876
Info: PERIODIC CELL CENTER   0 0 0
Info: WRAPPING WATERS AROUND PERIODIC BOUNDARIES ON OUTPUT.
Info: WRAPPING ALL CLUSTERS AROUND PERIODIC BOUNDARIES ON OUTPUT.
Info: FIRST LDB TIMESTEP     50
Info: LAST LDB TIMESTEP     -1
Info: HOM BACKGROUND SCALING 1
Info: PME BACKGROUND SCALING 1
Info: MIN ATOMS PER PATCH    40
Info: EMPTY PATCH LOAD       40 ATOMS
Info: INITIAL TEMPERATURE    300
Info: CENTER OF MASS MOVING INITIALLY? NO
Info: DIELECTRIC             1
Info: EXCLUDE                SCALED ONE-FOUR
Info: 1-4 ELECTROSTATICS SCALED BY 0.833333
Info: MODIFIED 1-4 VDW PARAMETERS WILL BE USED
Info: DCD FILENAME           mobley_2837389_equil.dcd
Info: DCD FREQUENCY          100000
Info: DCD FIRST STEP         100000
Info: DCD FILE WILL CONTAIN UNIT CELL DATA
Info: XST FILENAME           mobley_2837389_equil.xst
Info: XST FREQUENCY          100000
Info: NO VELOCITY DCD OUTPUT
Info: NO FORCE DCD OUTPUT
Info: OUTPUT FILENAME        mobley_2837389_equil
Info: BINARY OUTPUT FILES WILL BE USED
Info: RESTART FILENAME       mobley_2837389_equil.restart
Info: RESTART FREQUENCY      100000
Info: BINARY RESTART FILES WILL BE USED
Info: CUTOFF                 9
Info: PAIRLIST DISTANCE      11
Info: PAIRLIST SHRINK RATE   0.01
Info: PAIRLIST GROW RATE     0.01
Info: PAIRLIST TRIGGER       0.3
Info: PAIRLISTS PER CYCLE    2
Info: PAIRLISTS ENABLED
Info: MARGIN                 8
Info: HYDROGEN GROUP CUTOFF  2.5
Info: PATCH DIMENSION        21.5
Info: ENERGY OUTPUT STEPS    100000
Info: ENERGY EVALUATION STEPS    100000
Info: OUTPUT ENERGY PRECISION 4
Info: CROSSTERM ENERGY INCLUDED IN DIHEDRAL
Info: TIMING OUTPUT STEPS    1000000
Info: PRESSURE OUTPUT STEPS  100000
Info: FIXED ATOMS ACTIVE
Info: LANGEVIN DYNAMICS ACTIVE
Info: LANGEVIN TEMPERATURE   30
Info: LANGEVIN USING BBK INTEGRATOR
Info: LANGEVIN DAMPING COEFFICIENT IS 1 INVERSE PS
Info: LANGEVIN DYNAMICS APPLIED TO HYDROGENS
Info: LANGEVIN PISTON PRESSURE CONTROL ACTIVE
Info:        TARGET PRESSURE IS 1.01325 BAR
Info:     OSCILLATION PERIOD IS 50 FS
Info:             DECAY TIME IS 25 FS
Info:     PISTON TEMPERATURE IS 300 K
Info:       PRESSURE CONTROL IS GROUP-BASED
Info:    INITIAL STRAIN RATE IS 0 0 0
Info:       CELL FLUCTUATION IS ISOTROPIC
Info: PARTICLE MESH EWALD (PME) ACTIVE
Info: PME TOLERANCE               1e-06
Info: PME EWALD COEFFICIENT       0.348832
Info: PME INTERPOLATION ORDER     4
Info: PME GRID DIMENSIONS         40 40 36
Info: PME MAXIMUM GRID SPACING    1
Info: FULL ELECTROSTATIC EVALUATION FREQUENCY      2
Info: USING VERLET I (r-RESPA) MTS SCHEME.
Info: C1 SPLITTING OF LONG RANGE ELECTROSTATICS
Info: PLACING ATOMS IN PATCHES BY HYDROGEN GROUPS
Info: RIGID BONDS TO HYDROGEN : ALL
Info:         ERROR TOLERANCE : 1e-08
Info:          MAX ITERATIONS : 100
Info: RIGID WATER USING SETTLE ALGORITHM
Info: RANDOM NUMBER SEED     1743674920
Info: USE HYDROGEN BONDS?    NO
Info: Using AMBER format force field!
Info: AMBER PARM FILE        mobley_2837389.prmtop
Info: COORDINATE PDB         mobley_2837389.pdb
Info: Exclusions will be read from PARM file!
Info: SCNB (VDW SCALING)     2
Info: USING ARITHMETIC MEAN TO COMBINE L-J SIGMA PARAMETERS
Info: BINARY COORDINATES     mobley_2837389_min.coor
Info: SUMMARY OF PARAMETERS:
Info: 8 BONDS
Info: 8 ANGLES
Info:   8 HARMONIC
Info:   0 COSINE-BASED
Info: 3 DIHEDRAL
Info: 0 IMPROPER
Info: 0 CROSSTERM
Info: 0 VDW
Info: 28 VDW_PAIRS
Info: 0 NBTHOLE_PAIRS
Info: STRUCTURE SUMMARY:
Info: 2935 ATOMS
Info: 2935 BONDS
Info: 15 ANGLES
Info: 25 DIHEDRALS
Info: 0 IMPROPERS
Info: 0 CROSSTERMS
Info: 2965 EXCLUSIONS
Info: 10 FIXED ATOMS
Info: 2930 RIGID BONDS
Info: 5 RIGID BONDS BETWEEN FIXED ATOMS
Info: 5850 DEGREES OF FREEDOM
Info: 980 HYDROGEN GROUPS
Info: 3 ATOMS IN LARGEST HYDROGEN GROUP
Info: 980 MIGRATION GROUPS
Info: 3 ATOMS IN LARGEST MIGRATION GROUP
Info: 5 HYDROGEN GROUPS WITH ALL ATOMS FIXED
Info: TOTAL MASS = 17632.7 amu
Info: TOTAL CHARGE = -0.000100017 e
Info: MASS DENSITY = 0.648048 g/cm^3
Info: ATOM DENSITY = 0.0649587 atoms/A^3
Info: ADDED 0 IMPLICIT EXCLUSIONS
Info: NONBONDED TABLE R-SQUARED SPACING: 0.0625
Info: NONBONDED TABLE SIZE: 705 POINTS
Info: REMOVING COM VELOCITY 0.230283 -0.0225802 -0.0644304
TCL: Running for 100000 steps
ETITLE: TS BOND ANGLE DIHED IMPRP ELECT VDW BOUNDARY MISC KINETIC TOTAL TEMP POTENTIAL TOTAL3 TEMPAVG PRESSURE GPRESSURE VOLUME PRESSAVG GPRESSAVG
ENERGY: 0 0.0000 0.0000 0.0000 0.0000 -13624.0948 2418.9086 0.0000 0.0000 1710.8423 -9494.3439 294.3367 -11205.1861 -9494.0155 294.3367 611.3730 640.4854 45182.5256 611.3730 640.4854
ENERGY: 100000 0.0000 0.0000 0.0000 0.0000 -14249.6898 2552.1782 0.0000 0.0000 175.1487 -11522.3628 30.1329 -11697.5116 -11521.9672 30.9612 704.7542 782.0308 28778.9064 3.7161 3.6918
TCL: Running 100000 steps at 60 kelvin.
TCL: Setting parameter langevinTemp to 60
TCL: Running for 100000 steps
ETITLE: TS BOND ANGLE DIHED IMPRP ELECT VDW BOUNDARY MISC KINETIC TOTAL TEMP POTENTIAL TOTAL3 TEMPAVG PRESSURE GPRESSURE VOLUME PRESSAVG GPRESSAVG
ENERGY: 100000 0.0000 0.0000 0.0000 0.0000 -14249.6898 2552.1782 0.0000 0.0000 175.0610 -11522.4506 30.1178 -11697.5116 -11522.0972 30.1178 714.2343 781.9399 28778.9064 714.2343 781.9399
ENERGY: 200000 0.0000 0.0000 0.0000 0.0000 -14058.4439 2427.9605 0.0000 0.0000 367.4369 -11263.0465 63.2146 -11630.4834 -11261.9670 59.9083 -30.1175 1.8157 29005.9658 3.7734 3.7967
TCL: Running 100000 steps at 90 kelvin.
TCL: Setting parameter langevinTemp to 90
TCL: Running for 100000 steps
ETITLE: TS BOND ANGLE DIHED IMPRP ELECT VDW BOUNDARY MISC KINETIC TOTAL TEMP POTENTIAL TOTAL3 TEMPAVG PRESSURE GPRESSURE VOLUME PRESSAVG GPRESSAVG
ENERGY: 200000 0.0000 0.0000 0.0000 0.0000 -14058.4439 2427.9605 0.0000 0.0000 367.2631 -11263.2203 63.1847 -11630.4834 -11262.3729 63.1847 -50.8342 1.9546 29005.9658 -50.8342 1.9546
ENERGY: 300000 0.0000 0.0000 0.0000 0.0000 -13911.2895 2351.9121 0.0000 0.0000 525.5811 -11033.7963 90.4220 -11559.3774 -11032.3014 89.8926 -303.2466 -283.5929 28886.2797 3.8673 3.8415
TCL: Running 100000 steps at 120 kelvin.
TCL: Setting parameter langevinTemp to 120
TCL: Running for 100000 steps
ETITLE: TS BOND ANGLE DIHED IMPRP ELECT VDW BOUNDARY MISC KINETIC TOTAL TEMP POTENTIAL TOTAL3 TEMPAVG PRESSURE GPRESSURE VOLUME PRESSAVG GPRESSAVG
ENERGY: 300000 0.0000 0.0000 0.0000 0.0000 -13911.2895 2351.9121 0.0000 0.0000 525.3278 -11034.0496 90.3785 -11559.3774 -11033.0348 90.3785 -323.1814 -283.3177 28886.2797 -323.1814 -283.3177
ENERGY: 400000 0.0000 0.0000 0.0000 0.0000 -13852.3854 2446.8444 0.0000 0.0000 680.5373 -10725.0037 117.0810 -11405.5410 -10723.8125 119.7990 1107.5728 1169.2136 28439.7846 4.0070 4.0169
TCL: Running 100000 steps at 150 kelvin.
TCL: Setting parameter langevinTemp to 150
TCL: Running for 100000 steps
ETITLE: TS BOND ANGLE DIHED IMPRP ELECT VDW BOUNDARY MISC KINETIC TOTAL TEMP POTENTIAL TOTAL3 TEMPAVG PRESSURE GPRESSURE VOLUME PRESSAVG GPRESSAVG
ENERGY: 400000 0.0000 0.0000 0.0000 0.0000 -13852.3854 2446.8444 0.0000 0.0000 680.1975 -10725.3435 117.0225 -11405.5410 -10724.4128 117.0225 1103.1944 1169.1584 28439.7846 1103.1944 1169.1584
ENERGY: 500000 0.0000 0.0000 0.0000 0.0000 -13510.1488 2250.5198 0.0000 0.0000 871.3351 -10388.2939 149.9062 -11259.6290 -10386.4429 149.9823 -62.8041 -38.8666 28923.9133 3.6458 3.8467
TCL: Running 100000 steps at 180 kelvin.
TCL: Setting parameter langevinTemp to 180
TCL: Running for 100000 steps
ETITLE: TS BOND ANGLE DIHED IMPRP ELECT VDW BOUNDARY MISC KINETIC TOTAL TEMP POTENTIAL TOTAL3 TEMPAVG PRESSURE GPRESSURE VOLUME PRESSAVG GPRESSAVG
ENERGY: 500000 0.0000 0.0000 0.0000 0.0000 -13510.1488 2250.5198 0.0000 0.0000 870.8952 -10388.7338 149.8306 -11259.6290 -10387.1736 149.8306 -85.1421 -39.3652 28923.9133 -85.1421 -39.3652
ENERGY: 600000 0.0000 0.0000 0.0000 0.0000 -13080.6820 2084.4800 0.0000 0.0000 1019.2160 -9976.9859 175.3480 -10996.2020 -9975.7404 179.8198 -448.5485 -375.9724 28860.4006 3.7237 3.7918
TCL: Running 100000 steps at 210 kelvin.
TCL: Setting parameter langevinTemp to 210
TCL: Running for 100000 steps
ETITLE: TS BOND ANGLE DIHED IMPRP ELECT VDW BOUNDARY MISC KINETIC TOTAL TEMP POTENTIAL TOTAL3 TEMPAVG PRESSURE GPRESSURE VOLUME PRESSAVG GPRESSAVG
ENERGY: 600000 0.0000 0.0000 0.0000 0.0000 -13080.6820 2084.4800 0.0000 0.0000 1018.7000 -9977.5020 175.2592 -10996.2020 -9975.3828 175.2592 -434.8277 -378.3452 28860.4006 -434.8277 -378.3452
ENERGY: 700000 0.0000 0.0000 0.0000 0.0000 -12341.8200 1881.9412 0.0000 0.0000 1240.1857 -9219.6931 213.3641 -10459.8789 -9216.4573 210.0849 185.8809 203.9052 28402.1847 3.4045 3.4520
TCL: Running 100000 steps at 240 kelvin.
TCL: Setting parameter langevinTemp to 240
TCL: Running for 100000 steps
ETITLE: TS BOND ANGLE DIHED IMPRP ELECT VDW BOUNDARY MISC KINETIC TOTAL TEMP POTENTIAL TOTAL3 TEMPAVG PRESSURE GPRESSURE VOLUME PRESSAVG GPRESSAVG
ENERGY: 700000 0.0000 0.0000 0.0000 0.0000 -12341.8200 1881.9412 0.0000 0.0000 1239.5523 -9220.3266 213.2551 -10459.8789 -9218.5981 213.2551 133.6775 205.2291 28402.1847 133.6775 205.2291
ENERGY: 800000 0.0000 0.0000 0.0000 0.0000 -11713.6907 1708.5800 0.0000 0.0000 1438.2372 -8566.8735 247.4372 -10005.1107 -8564.5173 240.5556 256.0084 375.5831 28769.8390 2.5950 2.6640
TCL: Running 100000 steps at 270 kelvin.
TCL: Setting parameter langevinTemp to 270
TCL: Running for 100000 steps
ETITLE: TS BOND ANGLE DIHED IMPRP ELECT VDW BOUNDARY MISC KINETIC TOTAL TEMP POTENTIAL TOTAL3 TEMPAVG PRESSURE GPRESSURE VOLUME PRESSAVG GPRESSAVG
ENERGY: 800000 0.0000 0.0000 0.0000 0.0000 -11713.6907 1708.5800 0.0000 0.0000 1437.5541 -8567.5566 247.3197 -10005.1107 -8565.5357 247.3197 277.8105 373.5068 28769.8390 277.8105 373.5068
ENERGY: 900000 0.0000 0.0000 0.0000 0.0000 -11294.3885 1623.2457 0.0000 0.0000 1553.9632 -8117.1796 267.3470 -9671.1428 -8111.7036 270.4774 507.5787 644.1666 29052.8850 2.3773 2.5641
TCL: Running 1000000 steps at 300 kelvin.
TCL: Setting parameter langevinTemp to 300
TCL: Running for 1000000 steps
ETITLE: TS BOND ANGLE DIHED IMPRP ELECT VDW BOUNDARY MISC KINETIC TOTAL TEMP POTENTIAL TOTAL3 TEMPAVG PRESSURE GPRESSURE VOLUME PRESSAVG GPRESSAVG
ENERGY: 900000 0.0000 0.0000 0.0000 0.0000 -11294.3885 1623.2457 0.0000 0.0000 1553.1674 -8117.9754 267.2100 -9671.1428 -8116.3129 267.2100 562.7997 647.8529 29052.8850 562.7997 647.8529
ENERGY: 1100000 0.0000 0.0000 0.0000 0.0000 -10610.4893 1412.8390 0.0000 0.0000 1786.1115 -7411.5388 307.2862 -9197.6503 -7409.8665 301.0217 -6.4660 17.6430 30316.3089 3.7387 3.6632
ENERGY: 1300000 0.0000 0.0000 0.0000 0.0000 -10578.9581 1303.0534 0.0000 0.0000 1771.2359 -7504.6688 304.7270 -9275.9047 -7499.7922 300.3091 -975.2094 -891.9227 30029.6612 2.6100 2.4243
ENERGY: 1500000 0.0000 0.0000 0.0000 0.0000 -10713.0987 1409.6694 0.0000 0.0000 1776.6731 -7526.7562 305.6624 -9303.4293 -7523.1928 300.1532 -190.0106 -148.6735 29863.6490 4.3156 3.9461
ENERGY: 1700000 0.0000 0.0000 0.0000 0.0000 -10554.2490 1339.0101 0.0000 0.0000 1716.2586 -7498.9803 295.2686 -9215.2389 -7496.6296 300.1615 -957.6457 -816.8416 30588.5006 3.2017 3.1822
ENERGY: 1900000 0.0000 0.0000 0.0000 0.0000 -10717.2915 1414.5067 0.0000 0.0000 1763.7379 -7539.0469 303.4370 -9302.7848 -7534.2203 300.2143 -436.4867 -325.6058 30092.0789 3.4775 3.3472
TCL: Exiting due to exit command.
