Info: SIMULATION PARAMETERS:
Info: TIMESTEP               2
Info: NUMBER OF STEPS        0
Info: STEPS PER CYCLE        10
Info: PERIODIC CELL BASIS 1  34.986 0 0
Info: PERIODIC CELL BASIS 2  0 35.267 0
Info: PERIODIC CELL BASIS 3  0 0 35.644
Info: PERIODIC CELL CENTER   0 0 0
Info: WRAPPING WATERS AROUND PERIODIC BOUNDARIES ON OUTPUT.
Info: WRAPPING ALL CLUSTERS AROUND PERIODIC BOUNDARIES ON OUTPUT.
Info: FIRST LDB TIMESTEP     50
Info: LAST LDB TIMESTEP     -1
Info: HOM BACKGROUND SCALING 1
Info: PME BACKGROUND SCALING 1
Info: MIN ATOMS PER PATCH    40
Info: EMPTY PATCH LOAD       40 ATOMS
Info: INITIAL TEMPERATURE    300
Info: CENTER OF MASS MOVING INITIALLY? NO
Info: DIELECTRIC             1
Info: EXCLUDE                SCALED ONE-FOUR
Info: 1-4 ELECTROSTATICS SCALED BY 0.833333
Info: MODIFIED 1-4 VDW PARAMETERS WILL BE USED
Info: DCD FILENAME           mobley_7769613_equil.dcd
Info: DCD FREQUENCY          100000
Info: DCD FIRST STEP         100000
Info: DCD FILE WILL CONTAIN UNIT CELL DATA
Info: XST FILENAME           mobley_7769613_equil.xst
Info: XST FREQUENCY          100000
Info: NO VELOCITY DCD OUTPUT
Info: NO FORCE DCD OUTPUT
Info: OUTPUT FILENAME        mobley_7769613_equil
Info: BINARY OUTPUT FILES WILL BE USED
Info: RESTART FILENAME       mobley_7769613_equil.restart
Info: RESTART FREQUENCY      100000
Info: BINARY RESTART FILES WILL BE USED
Info: CUTOFF                 9
Info: PAIRLIST DISTANCE      11
Info: PAIRLIST SHRINK RATE   0.01
Info: PAIRLIST GROW RATE     0.01
Info: PAIRLIST TRIGGER       0.3
Info: PAIRLISTS PER CYCLE    2
Info: PAIRLISTS ENABLED
Info: MARGIN                 8
Info: HYDROGEN GROUP CUTOFF  2.5
Info: PATCH DIMENSION        21.5
Info: ENERGY OUTPUT STEPS    100000
Info: ENERGY EVALUATION STEPS    100000
Info: OUTPUT ENERGY PRECISION 4
Info: CROSSTERM ENERGY INCLUDED IN DIHEDRAL
Info: TIMING OUTPUT STEPS    1000000
Info: PRESSURE OUTPUT STEPS  100000
Info: FIXED ATOMS ACTIVE
Info: LANGEVIN DYNAMICS ACTIVE
Info: LANGEVIN TEMPERATURE   30
Info: LANGEVIN USING BBK INTEGRATOR
Info: LANGEVIN DAMPING COEFFICIENT IS 1 INVERSE PS
Info: LANGEVIN DYNAMICS APPLIED TO HYDROGENS
Info: LANGEVIN PISTON PRESSURE CONTROL ACTIVE
Info:        TARGET PRESSURE IS 1.01325 BAR
Info:     OSCILLATION PERIOD IS 50 FS
Info:             DECAY TIME IS 25 FS
Info:     PISTON TEMPERATURE IS 300 K
Info:       PRESSURE CONTROL IS GROUP-BASED
Info:    INITIAL STRAIN RATE IS 0 0 0
Info:       CELL FLUCTUATION IS ISOTROPIC
Info: PARTICLE MESH EWALD (PME) ACTIVE
Info: PME TOLERANCE               1e-06
Info: PME EWALD COEFFICIENT       0.348832
Info: PME INTERPOLATION ORDER     4
Info: PME GRID DIMENSIONS         36 36 36
Info: PME MAXIMUM GRID SPACING    1
Info: FULL ELECTROSTATIC EVALUATION FREQUENCY      2
Info: USING VERLET I (r-RESPA) MTS SCHEME.
Info: C1 SPLITTING OF LONG RANGE ELECTROSTATICS
Info: PLACING ATOMS IN PATCHES BY HYDROGEN GROUPS
Info: RIGID BONDS TO HYDROGEN : ALL
Info:         ERROR TOLERANCE : 1e-08
Info:          MAX ITERATIONS : 100
Info: RIGID WATER USING SETTLE ALGORITHM
Info: RANDOM NUMBER SEED     1743731299
Info: USE HYDROGEN BONDS?    NO
Info: Using AMBER format force field!
Info: AMBER PARM FILE        mobley_7769613.prmtop
Info: COORDINATE PDB         mobley_7769613.pdb
Info: Exclusions will be read from PARM file!
Info: SCNB (VDW SCALING)     2
Info: USING ARITHMETIC MEAN TO COMBINE L-J SIGMA PARAMETERS
Info: BINARY COORDINATES     mobley_7769613_min.coor
Info: SUMMARY OF PARAMETERS:
Info: 5 BONDS
Info: 4 ANGLES
Info:   4 HARMONIC
Info:   0 COSINE-BASED
Info: 3 DIHEDRAL
Info: 0 IMPROPER
Info: 0 CROSSTERM
Info: 0 VDW
Info: 15 VDW_PAIRS
Info: 0 NBTHOLE_PAIRS
Info: STRUCTURE SUMMARY:
Info: 2933 ATOMS
Info: 2932 BONDS
Info: 24 ANGLES
Info: 36 DIHEDRALS
Info: 0 IMPROPERS
Info: 0 CROSSTERMS
Info: 2983 EXCLUSIONS
Info: 14 FIXED ATOMS
Info: 2928 RIGID BONDS
Info: 9 RIGID BONDS BETWEEN FIXED ATOMS
Info: 5838 DEGREES OF FREEDOM
Info: 978 HYDROGEN GROUPS
Info: 4 ATOMS IN LARGEST HYDROGEN GROUP
Info: 978 MIGRATION GROUPS
Info: 4 ATOMS IN LARGEST MIGRATION GROUP
Info: 5 HYDROGEN GROUPS WITH ALL ATOMS FIXED
Info: TOTAL MASS = 17666.6 amu
Info: TOTAL CHARGE = 0.00040001 e
Info: MASS DENSITY = 0.667056 g/cm^3
Info: ATOM DENSITY = 0.0666903 atoms/A^3
Info: ADDED 0 IMPLICIT EXCLUSIONS
Info: NONBONDED TABLE R-SQUARED SPACING: 0.0625
Info: NONBONDED TABLE SIZE: 705 POINTS
Info: REMOVING COM VELOCITY 0.0940044 -0.0321378 0.00508082
TCL: Running for 100000 steps
ETITLE: TS BOND ANGLE DIHED IMPRP ELECT VDW BOUNDARY MISC KINETIC TOTAL TEMP POTENTIAL TOTAL3 TEMPAVG PRESSURE GPRESSURE VOLUME PRESSAVG GPRESSAVG
ENERGY: 0 0.0000 0.0000 0.0000 0.0000 -13567.8405 2399.3099 0.0000 0.0000 1724.3995 -9444.1311 297.2790 -11168.5306 -9443.8107 297.2790 663.4486 697.1166 43979.3944 663.4486 697.1166
ENERGY: 100000 0.0000 0.0000 0.0000 0.0000 -14162.9589 2468.9403 0.0000 0.0000 174.7490 -11519.2697 30.1260 -11694.0187 -11518.9455 30.8935 366.6316 387.4642 28373.2508 3.7265 3.7069
TCL: Running 100000 steps at 60 kelvin.
TCL: Setting parameter langevinTemp to 60
TCL: Running for 100000 steps
ETITLE: TS BOND ANGLE DIHED IMPRP ELECT VDW BOUNDARY MISC KINETIC TOTAL TEMP POTENTIAL TOTAL3 TEMPAVG PRESSURE GPRESSURE VOLUME PRESSAVG GPRESSAVG
ENERGY: 100000 0.0000 0.0000 0.0000 0.0000 -14162.9589 2468.9403 0.0000 0.0000 174.6591 -11519.3596 30.1105 -11694.0187 -11518.9497 30.1105 341.2902 387.2272 28373.2508 341.2902 387.2272
ENERGY: 200000 0.0000 0.0000 0.0000 0.0000 -14113.1920 2465.9353 0.0000 0.0000 362.6206 -11284.6361 62.5142 -11647.2567 -11283.7132 60.0590 739.2205 786.9478 27952.3953 4.0923 4.1634
TCL: Running 100000 steps at 90 kelvin.
TCL: Setting parameter langevinTemp to 90
TCL: Running for 100000 steps
ETITLE: TS BOND ANGLE DIHED IMPRP ELECT VDW BOUNDARY MISC KINETIC TOTAL TEMP POTENTIAL TOTAL3 TEMPAVG PRESSURE GPRESSURE VOLUME PRESSAVG GPRESSAVG
ENERGY: 200000 0.0000 0.0000 0.0000 0.0000 -14113.1920 2465.9353 0.0000 0.0000 362.4353 -11284.8214 62.4823 -11647.2567 -11284.0271 62.4823 737.0260 786.6769 27952.3953 737.0260 786.6769
ENERGY: 300000 0.0000 0.0000 0.0000 0.0000 -13822.7424 2300.0129 0.0000 0.0000 520.1926 -11002.5369 89.6789 -11522.7295 -11001.4311 89.8891 -367.2484 -317.1618 28458.3920 3.9881 4.0203
TCL: Running 100000 steps at 120 kelvin.
TCL: Setting parameter langevinTemp to 120
TCL: Running for 100000 steps
ETITLE: TS BOND ANGLE DIHED IMPRP ELECT VDW BOUNDARY MISC KINETIC TOTAL TEMP POTENTIAL TOTAL3 TEMPAVG PRESSURE GPRESSURE VOLUME PRESSAVG GPRESSAVG
ENERGY: 300000 0.0000 0.0000 0.0000 0.0000 -13822.7424 2300.0129 0.0000 0.0000 519.9364 -11002.7931 89.6348 -11522.7295 -11001.8396 89.6348 -361.3830 -316.9839 28458.3920 -361.3830 -316.9839
ENERGY: 400000 0.0000 0.0000 0.0000 0.0000 -13679.4108 2263.7497 0.0000 0.0000 696.4741 -10719.1870 120.0691 -11415.6611 -10718.2646 120.0202 -426.2470 -412.3285 28670.2789 5.1879 5.0933
TCL: Running 100000 steps at 150 kelvin.
TCL: Setting parameter langevinTemp to 150
TCL: Running for 100000 steps
ETITLE: TS BOND ANGLE DIHED IMPRP ELECT VDW BOUNDARY MISC KINETIC TOTAL TEMP POTENTIAL TOTAL3 TEMPAVG PRESSURE GPRESSURE VOLUME PRESSAVG GPRESSAVG
ENERGY: 400000 0.0000 0.0000 0.0000 0.0000 -13679.4108 2263.7497 0.0000 0.0000 696.1276 -10719.5335 120.0094 -11415.6611 -10718.0712 120.0094 -453.2621 -413.6315 28670.2789 -453.2621 -413.6315
ENERGY: 500000 0.0000 0.0000 0.0000 0.0000 -13266.6203 2046.2939 0.0000 0.0000 869.8113 -10350.5151 149.9517 -11220.3264 -10347.6702 149.8245 -1580.4072 -1545.7368 28846.4504 2.6845 2.7701
TCL: Running 100000 steps at 180 kelvin.
TCL: Setting parameter langevinTemp to 180
TCL: Running for 100000 steps
ETITLE: TS BOND ANGLE DIHED IMPRP ELECT VDW BOUNDARY MISC KINETIC TOTAL TEMP POTENTIAL TOTAL3 TEMPAVG PRESSURE GPRESSURE VOLUME PRESSAVG GPRESSAVG
ENERGY: 500000 0.0000 0.0000 0.0000 0.0000 -13266.6203 2046.2939 0.0000 0.0000 869.3803 -10350.9461 149.8774 -11220.3264 -10348.8407 149.8774 -1604.4685 -1545.7271 28846.4504 -1604.4685 -1545.7271
ENERGY: 600000 0.0000 0.0000 0.0000 0.0000 -12887.6988 2002.4314 0.0000 0.0000 1062.1621 -9823.1053 183.1121 -10885.2674 -9820.6578 180.2833 -519.3364 -433.3158 28429.0044 4.1145 4.1614
TCL: Running 100000 steps at 210 kelvin.
TCL: Setting parameter langevinTemp to 210
TCL: Running for 100000 steps
ETITLE: TS BOND ANGLE DIHED IMPRP ELECT VDW BOUNDARY MISC KINETIC TOTAL TEMP POTENTIAL TOTAL3 TEMPAVG PRESSURE GPRESSURE VOLUME PRESSAVG GPRESSAVG
ENERGY: 600000 0.0000 0.0000 0.0000 0.0000 -12887.6988 2002.4314 0.0000 0.0000 1061.6387 -9823.6288 183.0219 -10885.2674 -9821.8253 183.0219 -502.7122 -432.7293 28429.0044 -502.7122 -432.7293
ENERGY: 700000 0.0000 0.0000 0.0000 0.0000 -12245.1784 1805.5391 0.0000 0.0000 1231.9349 -9207.7044 212.3802 -10439.6393 -9205.2152 209.9227 -492.6812 -402.8487 28376.5829 4.2430 4.1557
TCL: Running 100000 steps at 240 kelvin.
TCL: Setting parameter langevinTemp to 240
TCL: Running for 100000 steps
ETITLE: TS BOND ANGLE DIHED IMPRP ELECT VDW BOUNDARY MISC KINETIC TOTAL TEMP POTENTIAL TOTAL3 TEMPAVG PRESSURE GPRESSURE VOLUME PRESSAVG GPRESSAVG
ENERGY: 700000 0.0000 0.0000 0.0000 0.0000 -12245.1784 1805.5391 0.0000 0.0000 1231.3141 -9208.3251 212.2732 -10439.6393 -9206.3370 212.2732 -474.4470 -403.0170 28376.5829 -474.4470 -403.0170
ENERGY: 800000 0.0000 0.0000 0.0000 0.0000 -11781.5628 1748.2950 0.0000 0.0000 1396.1501 -8637.1177 240.6902 -10033.2678 -8633.8077 239.8742 266.1707 319.2320 29089.6259 3.1789 3.0865
TCL: Running 100000 steps at 270 kelvin.
TCL: Setting parameter langevinTemp to 270
TCL: Running for 100000 steps
ETITLE: TS BOND ANGLE DIHED IMPRP ELECT VDW BOUNDARY MISC KINETIC TOTAL TEMP POTENTIAL TOTAL3 TEMPAVG PRESSURE GPRESSURE VOLUME PRESSAVG GPRESSAVG
ENERGY: 800000 0.0000 0.0000 0.0000 0.0000 -11781.5628 1748.2950 0.0000 0.0000 1395.4728 -8637.7950 240.5734 -10033.2678 -8635.5484 240.5734 243.8891 319.2756 29089.6259 243.8891 319.2756
ENERGY: 900000 0.0000 0.0000 0.0000 0.0000 -11076.2334 1522.1120 0.0000 0.0000 1539.7256 -8014.3958 265.4420 -9554.1213 -8010.6698 270.2204 -284.8219 -167.1984 29679.2631 3.6503 3.5634
TCL: Running 1000000 steps at 300 kelvin.
TCL: Setting parameter langevinTemp to 300
TCL: Running for 1000000 steps
ETITLE: TS BOND ANGLE DIHED IMPRP ELECT VDW BOUNDARY MISC KINETIC TOTAL TEMP POTENTIAL TOTAL3 TEMPAVG PRESSURE GPRESSURE VOLUME PRESSAVG GPRESSAVG
ENERGY: 900000 0.0000 0.0000 0.0000 0.0000 -11076.2334 1522.1120 0.0000 0.0000 1538.9628 -8015.1585 265.3105 -9554.1213 -8012.1139 265.3105 -252.0956 -167.6509 29679.2631 -252.0956 -167.6509
ENERGY: 1100000 0.0000 0.0000 0.0000 0.0000 -10623.9082 1442.1073 0.0000 0.0000 1739.3204 -7442.4805 299.8513 -9181.8009 -7440.8473 299.6721 43.0697 132.9209 30362.5106 4.6317 4.6975
ENERGY: 1300000 0.0000 0.0000 0.0000 0.0000 -10612.4281 1394.1066 0.0000 0.0000 1784.4925 -7433.8290 307.6387 -9218.3214 -7428.7005 299.8189 -450.8623 -375.7686 30723.1621 1.9533 1.8519
ENERGY: 1500000 0.0000 0.0000 0.0000 0.0000 -10610.6342 1398.9578 0.0000 0.0000 1723.3521 -7488.3244 297.0984 -9211.6764 -7484.9586 300.8547 -68.9574 -35.3196 30014.7079 2.9578 2.9434
ENERGY: 1700000 0.0000 0.0000 0.0000 0.0000 -10505.8380 1279.5925 0.0000 0.0000 1749.1348 -7477.1107 301.5432 -9226.2455 -7472.4514 300.0705 -1405.6058 -1337.4879 30566.7313 1.5883 1.4995
ENERGY: 1900000 0.0000 0.0000 0.0000 0.0000 -10569.0670 1424.9543 0.0000 0.0000 1729.5338 -7414.5790 298.1641 -9144.1127 -7410.2979 301.0838 196.4813 275.3038 30299.7544 3.6547 3.7637
TCL: Exiting due to exit command.
