Info: SIMULATION PARAMETERS:
Info: TIMESTEP               2
Info: NUMBER OF STEPS        0
Info: STEPS PER CYCLE        10
Info: PERIODIC CELL BASIS 1  38.861 0 0
Info: PERIODIC CELL BASIS 2  0 35.847 0
Info: PERIODIC CELL BASIS 3  0 0 31.349
Info: PERIODIC CELL CENTER   0 0 0
Info: WRAPPING WATERS AROUND PERIODIC BOUNDARIES ON OUTPUT.
Info: WRAPPING ALL CLUSTERS AROUND PERIODIC BOUNDARIES ON OUTPUT.
Info: FIRST LDB TIMESTEP     50
Info: LAST LDB TIMESTEP     -1
Info: HOM BACKGROUND SCALING 1
Info: PME BACKGROUND SCALING 1
Info: MIN ATOMS PER PATCH    40
Info: EMPTY PATCH LOAD       40 ATOMS
Info: INITIAL TEMPERATURE    300
Info: CENTER OF MASS MOVING INITIALLY? NO
Info: DIELECTRIC             1
Info: EXCLUDE                SCALED ONE-FOUR
Info: 1-4 ELECTROSTATICS SCALED BY 0.833333
Info: MODIFIED 1-4 VDW PARAMETERS WILL BE USED
Info: DCD FILENAME           mobley_3264884_equil.dcd
Info: DCD FREQUENCY          100000
Info: DCD FIRST STEP         100000
Info: DCD FILE WILL CONTAIN UNIT CELL DATA
Info: XST FILENAME           mobley_3264884_equil.xst
Info: XST FREQUENCY          100000
Info: NO VELOCITY DCD OUTPUT
Info: NO FORCE DCD OUTPUT
Info: OUTPUT FILENAME        mobley_3264884_equil
Info: BINARY OUTPUT FILES WILL BE USED
Info: RESTART FILENAME       mobley_3264884_equil.restart
Info: RESTART FREQUENCY      100000
Info: BINARY RESTART FILES WILL BE USED
Info: CUTOFF                 9
Info: PAIRLIST DISTANCE      11
Info: PAIRLIST SHRINK RATE   0.01
Info: PAIRLIST GROW RATE     0.01
Info: PAIRLIST TRIGGER       0.3
Info: PAIRLISTS PER CYCLE    2
Info: PAIRLISTS ENABLED
Info: MARGIN                 8
Info: HYDROGEN GROUP CUTOFF  2.5
Info: PATCH DIMENSION        21.5
Info: ENERGY OUTPUT STEPS    100000
Info: ENERGY EVALUATION STEPS    100000
Info: OUTPUT ENERGY PRECISION 4
Info: CROSSTERM ENERGY INCLUDED IN DIHEDRAL
Info: TIMING OUTPUT STEPS    1000000
Info: PRESSURE OUTPUT STEPS  100000
Info: FIXED ATOMS ACTIVE
Info: LANGEVIN DYNAMICS ACTIVE
Info: LANGEVIN TEMPERATURE   30
Info: LANGEVIN USING BBK INTEGRATOR
Info: LANGEVIN DAMPING COEFFICIENT IS 1 INVERSE PS
Info: LANGEVIN DYNAMICS APPLIED TO HYDROGENS
Info: LANGEVIN PISTON PRESSURE CONTROL ACTIVE
Info:        TARGET PRESSURE IS 1.01325 BAR
Info:     OSCILLATION PERIOD IS 50 FS
Info:             DECAY TIME IS 25 FS
Info:     PISTON TEMPERATURE IS 300 K
Info:       PRESSURE CONTROL IS GROUP-BASED
Info:    INITIAL STRAIN RATE IS 0 0 0
Info:       CELL FLUCTUATION IS ISOTROPIC
Info: PARTICLE MESH EWALD (PME) ACTIVE
Info: PME TOLERANCE               1e-06
Info: PME EWALD COEFFICIENT       0.348832
Info: PME INTERPOLATION ORDER     4
Info: PME GRID DIMENSIONS         40 36 32
Info: PME MAXIMUM GRID SPACING    1
Info: FULL ELECTROSTATIC EVALUATION FREQUENCY      2
Info: USING VERLET I (r-RESPA) MTS SCHEME.
Info: C1 SPLITTING OF LONG RANGE ELECTROSTATICS
Info: PLACING ATOMS IN PATCHES BY HYDROGEN GROUPS
Info: RIGID BONDS TO HYDROGEN : ALL
Info:         ERROR TOLERANCE : 1e-08
Info:          MAX ITERATIONS : 100
Info: RIGID WATER USING SETTLE ALGORITHM
Info: RANDOM NUMBER SEED     1743764180
Info: USE HYDROGEN BONDS?    NO
Info: Using AMBER format force field!
Info: AMBER PARM FILE        mobley_3264884.prmtop
Info: COORDINATE PDB         mobley_3264884.pdb
Info: Exclusions will be read from PARM file!
Info: SCNB (VDW SCALING)     2
Info: USING ARITHMETIC MEAN TO COMBINE L-J SIGMA PARAMETERS
Info: BINARY COORDINATES     mobley_3264884_min.coor
Info: SUMMARY OF PARAMETERS:
Info: 6 BONDS
Info: 5 ANGLES
Info:   5 HARMONIC
Info:   0 COSINE-BASED
Info: 3 DIHEDRAL
Info: 0 IMPROPER
Info: 0 CROSSTERM
Info: 0 VDW
Info: 21 VDW_PAIRS
Info: 0 NBTHOLE_PAIRS
Info: STRUCTURE SUMMARY:
Info: 2969 ATOMS
Info: 2970 BONDS
Info: 33 ANGLES
Info: 59 DIHEDRALS
Info: 0 IMPROPERS
Info: 0 CROSSTERMS
Info: 3045 EXCLUSIONS
Info: 20 FIXED ATOMS
Info: 2958 RIGID BONDS
Info: 9 RIGID BONDS BETWEEN FIXED ATOMS
Info: 5898 DEGREES OF FREEDOM
Info: 994 HYDROGEN GROUPS
Info: 3 ATOMS IN LARGEST HYDROGEN GROUP
Info: 994 MIGRATION GROUPS
Info: 3 ATOMS IN LARGEST MIGRATION GROUP
Info: 11 HYDROGEN GROUPS WITH ALL ATOMS FIXED
Info: TOTAL MASS = 17852.9 amu
Info: TOTAL CHARGE = 9.99963e-05 e
Info: MASS DENSITY = 0.678856 g/cm^3
Info: ATOM DENSITY = 0.067986 atoms/A^3
Info: ADDED 0 IMPLICIT EXCLUSIONS
Info: NONBONDED TABLE R-SQUARED SPACING: 0.0625
Info: NONBONDED TABLE SIZE: 705 POINTS
Info: REMOVING COM VELOCITY 0.138505 0.0191093 0.131387
TCL: Running for 100000 steps
ETITLE: TS BOND ANGLE DIHED IMPRP ELECT VDW BOUNDARY MISC KINETIC TOTAL TEMP POTENTIAL TOTAL3 TEMPAVG PRESSURE GPRESSURE VOLUME PRESSAVG GPRESSAVG
ENERGY: 0 0.0000 0.0000 0.0000 0.0000 -13909.3042 2432.6183 0.0000 0.0000 1753.7006 -9722.9853 299.2548 -11476.6859 -9722.6317 299.2548 321.9777 360.7825 43670.7328 321.9777 360.7825
ENERGY: 100000 0.0000 0.0000 0.0000 0.0000 -14261.6417 2469.8778 0.0000 0.0000 166.0189 -11625.7451 28.3298 -11791.7640 -11625.2452 30.7766 -123.8083 -66.0465 30659.7872 3.5809 3.5357
TCL: Running 100000 steps at 60 kelvin.
TCL: Setting parameter langevinTemp to 60
TCL: Running for 100000 steps
ETITLE: TS BOND ANGLE DIHED IMPRP ELECT VDW BOUNDARY MISC KINETIC TOTAL TEMP POTENTIAL TOTAL3 TEMPAVG PRESSURE GPRESSURE VOLUME PRESSAVG GPRESSAVG
ENERGY: 100000 0.0000 0.0000 0.0000 0.0000 -14261.6417 2469.8778 0.0000 0.0000 165.9294 -11625.8346 28.3145 -11791.7640 -11625.5909 28.3145 -112.7572 -65.8706 30659.7872 -112.7572 -65.8706
ENERGY: 200000 0.0000 0.0000 0.0000 0.0000 -14143.7800 2377.5457 0.0000 0.0000 352.6620 -11413.5723 60.1789 -11766.2343 -11412.6449 59.9773 -534.0492 -473.6436 29812.2612 2.8740 2.9228
TCL: Running 100000 steps at 90 kelvin.
TCL: Setting parameter langevinTemp to 90
TCL: Running for 100000 steps
ETITLE: TS BOND ANGLE DIHED IMPRP ELECT VDW BOUNDARY MISC KINETIC TOTAL TEMP POTENTIAL TOTAL3 TEMPAVG PRESSURE GPRESSURE VOLUME PRESSAVG GPRESSAVG
ENERGY: 200000 0.0000 0.0000 0.0000 0.0000 -14143.7800 2377.5457 0.0000 0.0000 352.4857 -11413.7485 60.1488 -11766.2343 -11413.2180 60.1488 -528.0284 -473.5874 29812.2612 -528.0284 -473.5874
ENERGY: 300000 0.0000 0.0000 0.0000 0.0000 -14126.8026 2413.7893 0.0000 0.0000 513.9653 -11199.0480 87.7040 -11713.0133 -11198.0536 90.1474 -129.3561 -1.8965 29436.7191 3.6754 3.7098
TCL: Running 100000 steps at 120 kelvin.
TCL: Setting parameter langevinTemp to 120
TCL: Running for 100000 steps
ETITLE: TS BOND ANGLE DIHED IMPRP ELECT VDW BOUNDARY MISC KINETIC TOTAL TEMP POTENTIAL TOTAL3 TEMPAVG PRESSURE GPRESSURE VOLUME PRESSAVG GPRESSAVG
ENERGY: 300000 0.0000 0.0000 0.0000 0.0000 -14126.8026 2413.7893 0.0000 0.0000 513.6983 -11199.3150 87.6584 -11713.0133 -11198.4074 87.6584 -67.7956 -2.1416 29436.7191 -67.7956 -2.1416
ENERGY: 400000 0.0000 0.0000 0.0000 0.0000 -13916.4001 2326.0275 0.0000 0.0000 691.6613 -10898.7113 118.0264 -11590.3726 -10896.2615 119.7025 -228.7568 -217.4024 29370.0805 3.9748 3.9662
TCL: Running 100000 steps at 150 kelvin.
TCL: Setting parameter langevinTemp to 150
TCL: Running for 100000 steps
ETITLE: TS BOND ANGLE DIHED IMPRP ELECT VDW BOUNDARY MISC KINETIC TOTAL TEMP POTENTIAL TOTAL3 TEMPAVG PRESSURE GPRESSURE VOLUME PRESSAVG GPRESSAVG
ENERGY: 400000 0.0000 0.0000 0.0000 0.0000 -13916.4001 2326.0275 0.0000 0.0000 691.3070 -10899.0656 117.9659 -11590.3726 -10898.0377 117.9659 -262.9172 -216.4714 29370.0805 -262.9172 -216.4714
ENERGY: 500000 0.0000 0.0000 0.0000 0.0000 -13767.3480 2368.5859 0.0000 0.0000 862.3068 -10536.4553 147.1456 -11398.7621 -10534.0456 149.8764 897.6287 944.7300 29228.4485 5.1498 4.9936
TCL: Running 100000 steps at 180 kelvin.
TCL: Setting parameter langevinTemp to 180
TCL: Running for 100000 steps
ETITLE: TS BOND ANGLE DIHED IMPRP ELECT VDW BOUNDARY MISC KINETIC TOTAL TEMP POTENTIAL TOTAL3 TEMPAVG PRESSURE GPRESSURE VOLUME PRESSAVG GPRESSAVG
ENERGY: 500000 0.0000 0.0000 0.0000 0.0000 -13767.3480 2368.5859 0.0000 0.0000 861.8745 -10536.8876 147.0719 -11398.7621 -10535.5364 147.0719 901.6510 944.0987 29228.4485 901.6510 944.0987
ENERGY: 600000 0.0000 0.0000 0.0000 0.0000 -13129.1070 2027.0827 0.0000 0.0000 1039.0806 -10062.9438 177.3107 -11102.0244 -10061.5197 179.8858 -828.4695 -757.6853 29270.7137 3.4767 3.6202
TCL: Running 100000 steps at 210 kelvin.
TCL: Setting parameter langevinTemp to 210
TCL: Running for 100000 steps
ETITLE: TS BOND ANGLE DIHED IMPRP ELECT VDW BOUNDARY MISC KINETIC TOTAL TEMP POTENTIAL TOTAL3 TEMPAVG PRESSURE GPRESSURE VOLUME PRESSAVG GPRESSAVG
ENERGY: 600000 0.0000 0.0000 0.0000 0.0000 -13129.1070 2027.0827 0.0000 0.0000 1038.5613 -10063.4631 177.2220 -11102.0244 -10061.6276 177.2220 -816.0046 -758.6492 29270.7137 -816.0046 -758.6492
ENERGY: 700000 0.0000 0.0000 0.0000 0.0000 -12406.3671 1786.0119 0.0000 0.0000 1240.7256 -9379.6296 211.7197 -10620.3552 -9375.7450 210.0237 -922.7170 -781.4191 28905.2625 3.4966 3.4735
TCL: Running 100000 steps at 240 kelvin.
TCL: Setting parameter langevinTemp to 240
TCL: Running for 100000 steps
ETITLE: TS BOND ANGLE DIHED IMPRP ELECT VDW BOUNDARY MISC KINETIC TOTAL TEMP POTENTIAL TOTAL3 TEMPAVG PRESSURE GPRESSURE VOLUME PRESSAVG GPRESSAVG
ENERGY: 700000 0.0000 0.0000 0.0000 0.0000 -12406.3671 1786.0119 0.0000 0.0000 1240.0744 -9380.2808 211.6086 -10620.3552 -9377.9494 211.6086 -849.0049 -781.3867 28905.2625 -849.0049 -781.3867
ENERGY: 800000 0.0000 0.0000 0.0000 0.0000 -11906.0726 1696.4614 0.0000 0.0000 1386.5344 -8823.0768 236.6008 -10209.6112 -8820.0608 239.9591 12.8734 93.0795 28916.9472 3.0736 3.1556
TCL: Running 100000 steps at 270 kelvin.
TCL: Setting parameter langevinTemp to 270
TCL: Running for 100000 steps
ETITLE: TS BOND ANGLE DIHED IMPRP ELECT VDW BOUNDARY MISC KINETIC TOTAL TEMP POTENTIAL TOTAL3 TEMPAVG PRESSURE GPRESSURE VOLUME PRESSAVG GPRESSAVG
ENERGY: 800000 0.0000 0.0000 0.0000 0.0000 -11906.0726 1696.4614 0.0000 0.0000 1385.8436 -8823.7676 236.4829 -10209.6112 -8821.3064 236.4829 -18.1132 92.8988 28916.9472 -18.1132 92.8988
ENERGY: 900000 0.0000 0.0000 0.0000 0.0000 -11379.1815 1570.7590 0.0000 0.0000 1591.0881 -8217.3344 271.5063 -9808.4226 -8214.7324 269.9967 220.4565 341.0209 29197.5651 3.6302 3.7409
TCL: Running 1000000 steps at 300 kelvin.
TCL: Setting parameter langevinTemp to 300
TCL: Running for 1000000 steps
ETITLE: TS BOND ANGLE DIHED IMPRP ELECT VDW BOUNDARY MISC KINETIC TOTAL TEMP POTENTIAL TOTAL3 TEMPAVG PRESSURE GPRESSURE VOLUME PRESSAVG GPRESSAVG
ENERGY: 900000 0.0000 0.0000 0.0000 0.0000 -11379.1815 1570.7590 0.0000 0.0000 1590.3202 -8218.1024 271.3752 -9808.4226 -8216.0573 271.3752 273.3360 340.0590 29197.5651 273.3360 340.0590
ENERGY: 1100000 0.0000 0.0000 0.0000 0.0000 -10843.3077 1480.9490 0.0000 0.0000 1756.4533 -7605.9054 299.7245 -9362.3587 -7603.6088 300.0909 609.5610 626.6620 30339.7975 2.9875 2.8253
ENERGY: 1300000 0.0000 0.0000 0.0000 0.0000 -10844.6752 1455.5573 0.0000 0.0000 1783.3629 -7605.7549 304.3164 -9389.1178 -7602.4463 299.8113 233.2143 275.6258 30538.8877 3.7329 3.6324
ENERGY: 1500000 0.0000 0.0000 0.0000 0.0000 -10733.9550 1393.9048 0.0000 0.0000 1720.7374 -7619.3128 293.6299 -9340.0502 -7616.2145 300.4168 -129.8970 -79.6267 30415.2097 3.4207 3.2544
ENERGY: 1700000 0.0000 0.0000 0.0000 0.0000 -10922.8046 1488.1265 0.0000 0.0000 1730.5311 -7704.1471 295.3011 -9434.6781 -7700.3467 299.7581 85.4085 156.0933 30631.7345 2.4679 2.5283
ENERGY: 1900000 0.0000 0.0000 0.0000 0.0000 -10749.1595 1389.0690 0.0000 0.0000 1759.4430 -7600.6474 300.2347 -9360.0905 -7597.3033 300.5810 -399.3068 -273.3782 30645.0884 4.3542 4.2486
TCL: Exiting due to exit command.
