Info: SIMULATION PARAMETERS:
Info: TIMESTEP               2
Info: NUMBER OF STEPS        0
Info: STEPS PER CYCLE        10
Info: PERIODIC CELL BASIS 1  34.986 0 0
Info: PERIODIC CELL BASIS 2  0 35.267 0
Info: PERIODIC CELL BASIS 3  0 0 35.516
Info: PERIODIC CELL CENTER   0 0 0
Info: WRAPPING WATERS AROUND PERIODIC BOUNDARIES ON OUTPUT.
Info: WRAPPING ALL CLUSTERS AROUND PERIODIC BOUNDARIES ON OUTPUT.
Info: FIRST LDB TIMESTEP     50
Info: LAST LDB TIMESTEP     -1
Info: HOM BACKGROUND SCALING 1
Info: PME BACKGROUND SCALING 1
Info: MIN ATOMS PER PATCH    40
Info: EMPTY PATCH LOAD       40 ATOMS
Info: INITIAL TEMPERATURE    300
Info: CENTER OF MASS MOVING INITIALLY? NO
Info: DIELECTRIC             1
Info: EXCLUDE                SCALED ONE-FOUR
Info: 1-4 ELECTROSTATICS SCALED BY 0.833333
Info: MODIFIED 1-4 VDW PARAMETERS WILL BE USED
Info: DCD FILENAME           mobley_5631798_equil.dcd
Info: DCD FREQUENCY          100000
Info: DCD FIRST STEP         100000
Info: DCD FILE WILL CONTAIN UNIT CELL DATA
Info: XST FILENAME           mobley_5631798_equil.xst
Info: XST FREQUENCY          100000
Info: NO VELOCITY DCD OUTPUT
Info: NO FORCE DCD OUTPUT
Info: OUTPUT FILENAME        mobley_5631798_equil
Info: BINARY OUTPUT FILES WILL BE USED
Info: RESTART FILENAME       mobley_5631798_equil.restart
Info: RESTART FREQUENCY      100000
Info: BINARY RESTART FILES WILL BE USED
Info: CUTOFF                 9
Info: PAIRLIST DISTANCE      11
Info: PAIRLIST SHRINK RATE   0.01
Info: PAIRLIST GROW RATE     0.01
Info: PAIRLIST TRIGGER       0.3
Info: PAIRLISTS PER CYCLE    2
Info: PAIRLISTS ENABLED
Info: MARGIN                 8
Info: HYDROGEN GROUP CUTOFF  2.5
Info: PATCH DIMENSION        21.5
Info: ENERGY OUTPUT STEPS    100000
Info: ENERGY EVALUATION STEPS    100000
Info: OUTPUT ENERGY PRECISION 4
Info: CROSSTERM ENERGY INCLUDED IN DIHEDRAL
Info: TIMING OUTPUT STEPS    1000000
Info: PRESSURE OUTPUT STEPS  100000
Info: FIXED ATOMS ACTIVE
Info: LANGEVIN DYNAMICS ACTIVE
Info: LANGEVIN TEMPERATURE   30
Info: LANGEVIN USING BBK INTEGRATOR
Info: LANGEVIN DAMPING COEFFICIENT IS 1 INVERSE PS
Info: LANGEVIN DYNAMICS APPLIED TO HYDROGENS
Info: LANGEVIN PISTON PRESSURE CONTROL ACTIVE
Info:        TARGET PRESSURE IS 1.01325 BAR
Info:     OSCILLATION PERIOD IS 50 FS
Info:             DECAY TIME IS 25 FS
Info:     PISTON TEMPERATURE IS 300 K
Info:       PRESSURE CONTROL IS GROUP-BASED
Info:    INITIAL STRAIN RATE IS 0 0 0
Info:       CELL FLUCTUATION IS ISOTROPIC
Info: PARTICLE MESH EWALD (PME) ACTIVE
Info: PME TOLERANCE               1e-06
Info: PME EWALD COEFFICIENT       0.348832
Info: PME INTERPOLATION ORDER     4
Info: PME GRID DIMENSIONS         36 36 36
Info: PME MAXIMUM GRID SPACING    1
Info: FULL ELECTROSTATIC EVALUATION FREQUENCY      2
Info: USING VERLET I (r-RESPA) MTS SCHEME.
Info: C1 SPLITTING OF LONG RANGE ELECTROSTATICS
Info: PLACING ATOMS IN PATCHES BY HYDROGEN GROUPS
Info: RIGID BONDS TO HYDROGEN : ALL
Info:         ERROR TOLERANCE : 1e-08
Info:          MAX ITERATIONS : 100
Info: RIGID WATER USING SETTLE ALGORITHM
Info: RANDOM NUMBER SEED     1743678412
Info: USE HYDROGEN BONDS?    NO
Info: Using AMBER format force field!
Info: AMBER PARM FILE        mobley_5631798.prmtop
Info: COORDINATE PDB         mobley_5631798.pdb
Info: Exclusions will be read from PARM file!
Info: SCNB (VDW SCALING)     2
Info: USING ARITHMETIC MEAN TO COMBINE L-J SIGMA PARAMETERS
Info: BINARY COORDINATES     mobley_5631798_min.coor
Info: SUMMARY OF PARAMETERS:
Info: 3 BONDS
Info: 1 ANGLES
Info:   1 HARMONIC
Info:   0 COSINE-BASED
Info: 0 DIHEDRAL
Info: 0 IMPROPER
Info: 0 CROSSTERM
Info: 0 VDW
Info: 10 VDW_PAIRS
Info: 0 NBTHOLE_PAIRS
Info: STRUCTURE SUMMARY:
Info: 2932 ATOMS
Info: 2931 BONDS
Info: 3 ANGLES
Info: 0 DIHEDRALS
Info: 0 IMPROPERS
Info: 0 CROSSTERMS
Info: 2934 EXCLUSIONS
Info: 4 FIXED ATOMS
Info: 2931 RIGID BONDS
Info: 3 RIGID BONDS BETWEEN FIXED ATOMS
Info: 5856 DEGREES OF FREEDOM
Info: 977 HYDROGEN GROUPS
Info: 4 ATOMS IN LARGEST HYDROGEN GROUP
Info: 977 MIGRATION GROUPS
Info: 4 ATOMS IN LARGEST MIGRATION GROUP
Info: 1 HYDROGEN GROUPS WITH ALL ATOMS FIXED
Info: TOTAL MASS = 17600.7 amu
Info: TOTAL CHARGE = 9.99868e-05 e
Info: MASS DENSITY = 0.666962 g/cm^3
Info: ATOM DENSITY = 0.0669079 atoms/A^3
Info: ADDED 0 IMPLICIT EXCLUSIONS
Info: NONBONDED TABLE R-SQUARED SPACING: 0.0625
Info: NONBONDED TABLE SIZE: 705 POINTS
Info: REMOVING COM VELOCITY 0.169789 0.0729098 -0.103797
TCL: Running for 100000 steps
ETITLE: TS BOND ANGLE DIHED IMPRP ELECT VDW BOUNDARY MISC KINETIC TOTAL TEMP POTENTIAL TOTAL3 TEMPAVG PRESSURE GPRESSURE VOLUME PRESSAVG GPRESSAVG
ENERGY: 0 0.0000 0.0000 0.0000 0.0000 -13733.0863 2417.3947 0.0000 0.0000 1766.2409 -9549.4506 303.5563 -11315.6916 -9549.1077 303.5563 548.7018 585.8909 43821.4614 548.7018 585.8909
ENERGY: 100000 0.0000 0.0000 0.0000 0.0000 -14264.8516 2489.0831 0.0000 0.0000 174.2503 -11601.5182 29.9477 -11775.7685 -11601.0687 30.8804 107.4242 153.8104 29167.0572 3.9866 3.9745
TCL: Running 100000 steps at 60 kelvin.
TCL: Setting parameter langevinTemp to 60
TCL: Running for 100000 steps
ETITLE: TS BOND ANGLE DIHED IMPRP ELECT VDW BOUNDARY MISC KINETIC TOTAL TEMP POTENTIAL TOTAL3 TEMPAVG PRESSURE GPRESSURE VOLUME PRESSAVG GPRESSAVG
ENERGY: 100000 0.0000 0.0000 0.0000 0.0000 -14264.8516 2489.0831 0.0000 0.0000 174.1619 -11601.6065 29.9325 -11775.7685 -11601.1434 29.9325 101.9843 153.7253 29167.0572 101.9843 153.7253
ENERGY: 200000 0.0000 0.0000 0.0000 0.0000 -14140.2101 2436.3988 0.0000 0.0000 346.2578 -11357.5534 59.5099 -11703.8113 -11356.8471 60.0261 103.0111 178.7676 28748.0106 3.3268 3.3094
TCL: Running 100000 steps at 90 kelvin.
TCL: Setting parameter langevinTemp to 90
TCL: Running for 100000 steps
ETITLE: TS BOND ANGLE DIHED IMPRP ELECT VDW BOUNDARY MISC KINETIC TOTAL TEMP POTENTIAL TOTAL3 TEMPAVG PRESSURE GPRESSURE VOLUME PRESSAVG GPRESSAVG
ENERGY: 200000 0.0000 0.0000 0.0000 0.0000 -14140.2101 2436.3988 0.0000 0.0000 346.0883 -11357.7230 59.4807 -11703.8113 -11357.0310 59.4807 142.5474 178.3797 28748.0106 142.5474 178.3797
ENERGY: 300000 0.0000 0.0000 0.0000 0.0000 -14062.0136 2450.8448 0.0000 0.0000 523.3409 -11087.8279 89.9444 -11611.1688 -11087.1341 89.8890 559.1835 622.0057 28421.9504 6.0087 6.1797
TCL: Running 100000 steps at 120 kelvin.
TCL: Setting parameter langevinTemp to 120
TCL: Running for 100000 steps
ETITLE: TS BOND ANGLE DIHED IMPRP ELECT VDW BOUNDARY MISC KINETIC TOTAL TEMP POTENTIAL TOTAL3 TEMPAVG PRESSURE GPRESSURE VOLUME PRESSAVG GPRESSAVG
ENERGY: 300000 0.0000 0.0000 0.0000 0.0000 -14062.0136 2450.8448 0.0000 0.0000 523.0759 -11088.0929 89.8988 -11611.1688 -11087.4723 89.8988 560.6948 621.9774 28421.9504 560.6948 621.9774
ENERGY: 400000 0.0000 0.0000 0.0000 0.0000 -13780.8056 2270.2006 0.0000 0.0000 700.9637 -10809.6413 120.4716 -11510.6050 -10807.7548 120.0444 -564.6303 -531.6143 28661.5751 3.8039 3.8282
TCL: Running 100000 steps at 150 kelvin.
TCL: Setting parameter langevinTemp to 150
TCL: Running for 100000 steps
ETITLE: TS BOND ANGLE DIHED IMPRP ELECT VDW BOUNDARY MISC KINETIC TOTAL TEMP POTENTIAL TOTAL3 TEMPAVG PRESSURE GPRESSURE VOLUME PRESSAVG GPRESSAVG
ENERGY: 400000 0.0000 0.0000 0.0000 0.0000 -13780.8056 2270.2006 0.0000 0.0000 700.6185 -10809.9865 120.4123 -11510.6050 -10808.4015 120.4123 -587.7696 -531.7153 28661.5751 -587.7696 -531.7153
ENERGY: 500000 0.0000 0.0000 0.0000 0.0000 -13528.9178 2195.5023 0.0000 0.0000 852.1424 -10481.2731 146.4541 -11333.4154 -10479.1353 149.9702 -423.1358 -364.6626 28660.1239 4.2432 4.2523
TCL: Running 100000 steps at 180 kelvin.
TCL: Setting parameter langevinTemp to 180
TCL: Running for 100000 steps
ETITLE: TS BOND ANGLE DIHED IMPRP ELECT VDW BOUNDARY MISC KINETIC TOTAL TEMP POTENTIAL TOTAL3 TEMPAVG PRESSURE GPRESSURE VOLUME PRESSAVG GPRESSAVG
ENERGY: 500000 0.0000 0.0000 0.0000 0.0000 -13528.9178 2195.5023 0.0000 0.0000 851.7110 -10481.7044 146.3799 -11333.4154 -10479.7868 146.3799 -419.4884 -363.9460 28660.1239 -419.4884 -363.9460
ENERGY: 600000 0.0000 0.0000 0.0000 0.0000 -13161.3847 2159.1903 0.0000 0.0000 1056.5837 -9945.6108 181.5905 -11002.1944 -9942.4097 180.1854 463.2961 516.7793 28692.2131 3.5629 3.6108
TCL: Running 100000 steps at 210 kelvin.
TCL: Setting parameter langevinTemp to 210
TCL: Running for 100000 steps
ETITLE: TS BOND ANGLE DIHED IMPRP ELECT VDW BOUNDARY MISC KINETIC TOTAL TEMP POTENTIAL TOTAL3 TEMPAVG PRESSURE GPRESSURE VOLUME PRESSAVG GPRESSAVG
ENERGY: 600000 0.0000 0.0000 0.0000 0.0000 -13161.3847 2159.1903 0.0000 0.0000 1056.0574 -9946.1370 181.5001 -11002.1944 -9944.0411 181.5001 459.5675 517.3049 28692.2131 459.5675 517.3049
ENERGY: 700000 0.0000 0.0000 0.0000 0.0000 -12374.6658 1777.5375 0.0000 0.0000 1237.7122 -9359.4162 212.7203 -10597.1284 -9355.8981 209.7318 -1145.0454 -1065.4616 28741.1742 4.3800 4.2338
TCL: Running 100000 steps at 240 kelvin.
TCL: Setting parameter langevinTemp to 240
TCL: Running for 100000 steps
ETITLE: TS BOND ANGLE DIHED IMPRP ELECT VDW BOUNDARY MISC KINETIC TOTAL TEMP POTENTIAL TOTAL3 TEMPAVG PRESSURE GPRESSURE VOLUME PRESSAVG GPRESSAVG
ENERGY: 700000 0.0000 0.0000 0.0000 0.0000 -12374.6658 1777.5375 0.0000 0.0000 1237.0892 -9360.0392 212.6133 -10597.1284 -9358.0514 212.6133 -1148.2189 -1063.4598 28741.1742 -1148.2189 -1063.4598
ENERGY: 800000 0.0000 0.0000 0.0000 0.0000 -11683.1045 1607.1617 0.0000 0.0000 1385.6317 -8690.3110 238.1426 -10075.9428 -8688.3225 239.6524 -704.7510 -634.7665 28916.7489 3.5006 3.5879
TCL: Running 100000 steps at 270 kelvin.
TCL: Setting parameter langevinTemp to 270
TCL: Running for 100000 steps
ETITLE: TS BOND ANGLE DIHED IMPRP ELECT VDW BOUNDARY MISC KINETIC TOTAL TEMP POTENTIAL TOTAL3 TEMPAVG PRESSURE GPRESSURE VOLUME PRESSAVG GPRESSAVG
ENERGY: 800000 0.0000 0.0000 0.0000 0.0000 -11683.1045 1607.1617 0.0000 0.0000 1384.9417 -8691.0011 238.0240 -10075.9428 -8688.4349 238.0240 -716.8968 -636.5424 28916.7489 -716.8968 -636.5424
ENERGY: 900000 0.0000 0.0000 0.0000 0.0000 -11393.4074 1585.0650 0.0000 0.0000 1538.3527 -8269.9898 264.3901 -9808.3424 -8267.7543 270.2526 -251.4158 -210.8849 29659.3321 2.5036 2.2568
TCL: Running 1000000 steps at 300 kelvin.
TCL: Setting parameter langevinTemp to 300
TCL: Running for 1000000 steps
ETITLE: TS BOND ANGLE DIHED IMPRP ELECT VDW BOUNDARY MISC KINETIC TOTAL TEMP POTENTIAL TOTAL3 TEMPAVG PRESSURE GPRESSURE VOLUME PRESSAVG GPRESSAVG
ENERGY: 900000 0.0000 0.0000 0.0000 0.0000 -11393.4074 1585.0650 0.0000 0.0000 1537.5948 -8270.7477 264.2599 -9808.3424 -8268.4658 264.2599 -293.2137 -211.3467 29659.3321 -293.2137 -211.3467
ENERGY: 1100000 0.0000 0.0000 0.0000 0.0000 -10688.4948 1418.4598 0.0000 0.0000 1745.2836 -7524.7513 299.9545 -9270.0349 -7522.0081 300.3605 -79.4977 29.6436 30024.9750 4.2161 3.9945
ENERGY: 1300000 0.0000 0.0000 0.0000 0.0000 -10737.1084 1507.2319 0.0000 0.0000 1749.3067 -7480.5698 300.6459 -9229.8765 -7478.9359 299.9907 607.5524 729.9785 30430.9780 3.6585 3.7568
ENERGY: 1500000 0.0000 0.0000 0.0000 0.0000 -10773.1991 1456.7096 0.0000 0.0000 1780.0604 -7536.4291 305.9314 -9316.4895 -7534.9155 300.3666 273.2445 349.0101 29848.9417 3.1824 3.3019
ENERGY: 1700000 0.0000 0.0000 0.0000 0.0000 -10824.9302 1452.0497 0.0000 0.0000 1780.6130 -7592.2675 306.0264 -9372.8805 -7587.1858 299.9577 -294.6314 -198.3025 30530.5714 4.0389 4.0018
ENERGY: 1900000 0.0000 0.0000 0.0000 0.0000 -10759.1191 1448.4874 0.0000 0.0000 1794.3381 -7516.2936 308.3852 -9310.6317 -7513.5799 299.4478 128.0024 219.6418 29979.4767 3.5835 3.5904
TCL: Exiting due to exit command.
