Info: SIMULATION PARAMETERS:
Info: TIMESTEP               2
Info: NUMBER OF STEPS        0
Info: STEPS PER CYCLE        10
Info: PERIODIC CELL BASIS 1  37.435 0 0
Info: PERIODIC CELL BASIS 2  0 36.032 0
Info: PERIODIC CELL BASIS 3  0 0 31.855
Info: PERIODIC CELL CENTER   0 0 0
Info: WRAPPING WATERS AROUND PERIODIC BOUNDARIES ON OUTPUT.
Info: WRAPPING ALL CLUSTERS AROUND PERIODIC BOUNDARIES ON OUTPUT.
Info: FIRST LDB TIMESTEP     50
Info: LAST LDB TIMESTEP     -1
Info: HOM BACKGROUND SCALING 1
Info: PME BACKGROUND SCALING 1
Info: MIN ATOMS PER PATCH    40
Info: EMPTY PATCH LOAD       40 ATOMS
Info: INITIAL TEMPERATURE    300
Info: CENTER OF MASS MOVING INITIALLY? NO
Info: DIELECTRIC             1
Info: EXCLUDE                SCALED ONE-FOUR
Info: 1-4 ELECTROSTATICS SCALED BY 0.833333
Info: MODIFIED 1-4 VDW PARAMETERS WILL BE USED
Info: DCD FILENAME           mobley_2850833_equil.dcd
Info: DCD FREQUENCY          100000
Info: DCD FIRST STEP         100000
Info: DCD FILE WILL CONTAIN UNIT CELL DATA
Info: XST FILENAME           mobley_2850833_equil.xst
Info: XST FREQUENCY          100000
Info: NO VELOCITY DCD OUTPUT
Info: NO FORCE DCD OUTPUT
Info: OUTPUT FILENAME        mobley_2850833_equil
Info: BINARY OUTPUT FILES WILL BE USED
Info: RESTART FILENAME       mobley_2850833_equil.restart
Info: RESTART FREQUENCY      100000
Info: BINARY RESTART FILES WILL BE USED
Info: CUTOFF                 9
Info: PAIRLIST DISTANCE      11
Info: PAIRLIST SHRINK RATE   0.01
Info: PAIRLIST GROW RATE     0.01
Info: PAIRLIST TRIGGER       0.3
Info: PAIRLISTS PER CYCLE    2
Info: PAIRLISTS ENABLED
Info: MARGIN                 8
Info: HYDROGEN GROUP CUTOFF  2.5
Info: PATCH DIMENSION        21.5
Info: ENERGY OUTPUT STEPS    100000
Info: ENERGY EVALUATION STEPS    100000
Info: OUTPUT ENERGY PRECISION 4
Info: CROSSTERM ENERGY INCLUDED IN DIHEDRAL
Info: TIMING OUTPUT STEPS    1000000
Info: PRESSURE OUTPUT STEPS  100000
Info: FIXED ATOMS ACTIVE
Info: LANGEVIN DYNAMICS ACTIVE
Info: LANGEVIN TEMPERATURE   30
Info: LANGEVIN USING BBK INTEGRATOR
Info: LANGEVIN DAMPING COEFFICIENT IS 1 INVERSE PS
Info: LANGEVIN DYNAMICS APPLIED TO HYDROGENS
Info: LANGEVIN PISTON PRESSURE CONTROL ACTIVE
Info:        TARGET PRESSURE IS 1.01325 BAR
Info:     OSCILLATION PERIOD IS 50 FS
Info:             DECAY TIME IS 25 FS
Info:     PISTON TEMPERATURE IS 300 K
Info:       PRESSURE CONTROL IS GROUP-BASED
Info:    INITIAL STRAIN RATE IS 0 0 0
Info:       CELL FLUCTUATION IS ISOTROPIC
Info: PARTICLE MESH EWALD (PME) ACTIVE
Info: PME TOLERANCE               1e-06
Info: PME EWALD COEFFICIENT       0.348832
Info: PME INTERPOLATION ORDER     4
Info: PME GRID DIMENSIONS         40 40 32
Info: PME MAXIMUM GRID SPACING    1
Info: FULL ELECTROSTATIC EVALUATION FREQUENCY      2
Info: USING VERLET I (r-RESPA) MTS SCHEME.
Info: C1 SPLITTING OF LONG RANGE ELECTROSTATICS
Info: PLACING ATOMS IN PATCHES BY HYDROGEN GROUPS
Info: RIGID BONDS TO HYDROGEN : ALL
Info:         ERROR TOLERANCE : 1e-08
Info:          MAX ITERATIONS : 100
Info: RIGID WATER USING SETTLE ALGORITHM
Info: RANDOM NUMBER SEED     1744090513
Info: USE HYDROGEN BONDS?    NO
Info: Using AMBER format force field!
Info: AMBER PARM FILE        mobley_2850833.prmtop
Info: COORDINATE PDB         mobley_2850833.pdb
Info: Exclusions will be read from PARM file!
Info: SCNB (VDW SCALING)     2
Info: USING ARITHMETIC MEAN TO COMBINE L-J SIGMA PARAMETERS
Info: BINARY COORDINATES     mobley_2850833_min.coor
Info: SUMMARY OF PARAMETERS:
Info: 9 BONDS
Info: 8 ANGLES
Info:   8 HARMONIC
Info:   0 COSINE-BASED
Info: 5 DIHEDRAL
Info: 0 IMPROPER
Info: 0 CROSSTERM
Info: 0 VDW
Info: 28 VDW_PAIRS
Info: 0 NBTHOLE_PAIRS
Info: STRUCTURE SUMMARY:
Info: 2958 ATOMS
Info: 2958 BONDS
Info: 22 ANGLES
Info: 37 DIHEDRALS
Info: 0 IMPROPERS
Info: 0 CROSSTERMS
Info: 3007 EXCLUSIONS
Info: 15 FIXED ATOMS
Info: 2949 RIGID BONDS
Info: 6 RIGID BONDS BETWEEN FIXED ATOMS
Info: 5886 DEGREES OF FREEDOM
Info: 990 HYDROGEN GROUPS
Info: 3 ATOMS IN LARGEST HYDROGEN GROUP
Info: 990 MIGRATION GROUPS
Info: 3 ATOMS IN LARGEST MIGRATION GROUP
Info: 9 HYDROGEN GROUPS WITH ALL ATOMS FIXED
Info: TOTAL MASS = 17795.8 amu
Info: TOTAL CHARGE = -0.000199957 e
Info: MASS DENSITY = 0.687754 g/cm^3
Info: ATOM DENSITY = 0.0688421 atoms/A^3
Info: ADDED 0 IMPLICIT EXCLUSIONS
Info: NONBONDED TABLE R-SQUARED SPACING: 0.0625
Info: NONBONDED TABLE SIZE: 705 POINTS
Info: REMOVING COM VELOCITY 0.0244901 0.0899886 0.0506568
TCL: Running for 100000 steps
ETITLE: TS BOND ANGLE DIHED IMPRP ELECT VDW BOUNDARY MISC KINETIC TOTAL TEMP POTENTIAL TOTAL3 TEMPAVG PRESSURE GPRESSURE VOLUME PRESSAVG GPRESSAVG
ENERGY: 0 0.0000 0.0000 0.0000 0.0000 -13762.0481 2373.4442 0.0000 0.0000 1746.9809 -9641.6229 298.7159 -11388.6039 -9641.2793 298.7159 175.2817 202.9219 42967.8690 175.2817 202.9219
ENERGY: 100000 0.0000 0.0000 0.0000 0.0000 -14315.9939 2463.4907 0.0000 0.0000 174.5728 -11677.9305 29.8502 -11852.5033 -11677.4822 30.8963 -468.6973 -408.3007 29782.4369 5.6461 5.6007
TCL: Running 100000 steps at 60 kelvin.
TCL: Setting parameter langevinTemp to 60
TCL: Running for 100000 steps
ETITLE: TS BOND ANGLE DIHED IMPRP ELECT VDW BOUNDARY MISC KINETIC TOTAL TEMP POTENTIAL TOTAL3 TEMPAVG PRESSURE GPRESSURE VOLUME PRESSAVG GPRESSAVG
ENERGY: 100000 0.0000 0.0000 0.0000 0.0000 -14315.9939 2463.4907 0.0000 0.0000 174.4814 -11678.0218 29.8345 -11852.5033 -11677.6666 29.8345 -454.0571 -408.3134 29782.4369 -454.0571 -408.3134
ENERGY: 200000 0.0000 0.0000 0.0000 0.0000 -14178.4561 2417.2206 0.0000 0.0000 350.8178 -11410.4177 59.9863 -11761.2355 -11410.0289 59.9493 -177.5055 -90.6059 29196.8105 3.7652 3.8715
TCL: Running 100000 steps at 90 kelvin.
TCL: Setting parameter langevinTemp to 90
TCL: Running for 100000 steps
ETITLE: TS BOND ANGLE DIHED IMPRP ELECT VDW BOUNDARY MISC KINETIC TOTAL TEMP POTENTIAL TOTAL3 TEMPAVG PRESSURE GPRESSURE VOLUME PRESSAVG GPRESSAVG
ENERGY: 200000 0.0000 0.0000 0.0000 0.0000 -14178.4561 2417.2206 0.0000 0.0000 350.6381 -11410.5974 59.9555 -11761.2355 -11409.7211 59.9555 -156.9977 -91.2025 29196.8105 -156.9977 -91.2025
ENERGY: 300000 0.0000 0.0000 0.0000 0.0000 -14055.5595 2394.8061 0.0000 0.0000 513.8586 -11146.8948 87.8646 -11660.7534 -11145.6445 89.9707 130.9392 144.7614 29105.1189 4.1142 4.2362
TCL: Running 100000 steps at 120 kelvin.
TCL: Setting parameter langevinTemp to 120
TCL: Running for 100000 steps
ETITLE: TS BOND ANGLE DIHED IMPRP ELECT VDW BOUNDARY MISC KINETIC TOTAL TEMP POTENTIAL TOTAL3 TEMPAVG PRESSURE GPRESSURE VOLUME PRESSAVG GPRESSAVG
ENERGY: 300000 0.0000 0.0000 0.0000 0.0000 -14055.5595 2394.8061 0.0000 0.0000 513.6030 -11147.1504 87.8209 -11660.7534 -11146.1852 87.8209 87.9164 144.5820 29105.1189 87.9164 144.5820
ENERGY: 400000 0.0000 0.0000 0.0000 0.0000 -13899.5492 2356.0883 0.0000 0.0000 696.1560 -10847.3050 119.0355 -11543.4610 -10844.5147 119.6874 392.7926 468.7145 28738.1599 3.7443 3.8308
TCL: Running 100000 steps at 150 kelvin.
TCL: Setting parameter langevinTemp to 150
TCL: Running for 100000 steps
ETITLE: TS BOND ANGLE DIHED IMPRP ELECT VDW BOUNDARY MISC KINETIC TOTAL TEMP POTENTIAL TOTAL3 TEMPAVG PRESSURE GPRESSURE VOLUME PRESSAVG GPRESSAVG
ENERGY: 400000 0.0000 0.0000 0.0000 0.0000 -13899.5492 2356.0883 0.0000 0.0000 695.8066 -10847.6544 118.9758 -11543.4610 -10846.3398 118.9758 416.9529 469.7285 28738.1599 416.9529 469.7285
ENERGY: 500000 0.0000 0.0000 0.0000 0.0000 -13502.6059 2113.0178 0.0000 0.0000 899.1334 -10490.4547 153.7426 -11389.5881 -10489.4486 149.7430 -1215.7652 -1133.2622 29219.0423 4.9122 4.8613
TCL: Running 100000 steps at 180 kelvin.
TCL: Setting parameter langevinTemp to 180
TCL: Running for 100000 steps
ETITLE: TS BOND ANGLE DIHED IMPRP ELECT VDW BOUNDARY MISC KINETIC TOTAL TEMP POTENTIAL TOTAL3 TEMPAVG PRESSURE GPRESSURE VOLUME PRESSAVG GPRESSAVG
ENERGY: 500000 0.0000 0.0000 0.0000 0.0000 -13502.6059 2113.0178 0.0000 0.0000 898.6847 -10490.9034 153.6659 -11389.5881 -10489.0999 153.6659 -1187.9084 -1134.0301 29219.0423 -1187.9084 -1134.0301
ENERGY: 600000 0.0000 0.0000 0.0000 0.0000 -13266.7537 2186.4786 0.0000 0.0000 1070.2080 -10010.0671 182.9946 -11080.2751 -10007.8699 179.9588 747.0399 805.6045 28676.8473 6.0710 6.1097
TCL: Running 100000 steps at 210 kelvin.
TCL: Setting parameter langevinTemp to 210
TCL: Running for 100000 steps
ETITLE: TS BOND ANGLE DIHED IMPRP ELECT VDW BOUNDARY MISC KINETIC TOTAL TEMP POTENTIAL TOTAL3 TEMPAVG PRESSURE GPRESSURE VOLUME PRESSAVG GPRESSAVG
ENERGY: 600000 0.0000 0.0000 0.0000 0.0000 -13266.7537 2186.4786 0.0000 0.0000 1069.6746 -10010.6004 182.9034 -11080.2751 -10008.9948 182.9034 734.4147 805.8249 28676.8473 734.4147 805.8249
ENERGY: 700000 0.0000 0.0000 0.0000 0.0000 -12461.4204 1851.8648 0.0000 0.0000 1231.4161 -9378.1395 210.5595 -10609.5556 -9375.8485 209.7338 -439.0367 -369.4690 29081.8140 2.8266 2.8676
TCL: Running 100000 steps at 240 kelvin.
TCL: Setting parameter langevinTemp to 240
TCL: Running for 100000 steps
ETITLE: TS BOND ANGLE DIHED IMPRP ELECT VDW BOUNDARY MISC KINETIC TOTAL TEMP POTENTIAL TOTAL3 TEMPAVG PRESSURE GPRESSURE VOLUME PRESSAVG GPRESSAVG
ENERGY: 700000 0.0000 0.0000 0.0000 0.0000 -12461.4204 1851.8648 0.0000 0.0000 1230.8288 -9378.7268 210.4591 -10609.5556 -9376.3808 210.4591 -436.5572 -369.0709 29081.8140 -436.5572 -369.0709
ENERGY: 800000 0.0000 0.0000 0.0000 0.0000 -11750.6045 1561.9981 0.0000 0.0000 1380.5629 -8808.0435 236.0621 -10188.6064 -8804.0423 240.5532 -1328.6065 -1212.4675 29072.7523 3.8058 3.7543
TCL: Running 100000 steps at 270 kelvin.
TCL: Setting parameter langevinTemp to 270
TCL: Running for 100000 steps
ETITLE: TS BOND ANGLE DIHED IMPRP ELECT VDW BOUNDARY MISC KINETIC TOTAL TEMP POTENTIAL TOTAL3 TEMPAVG PRESSURE GPRESSURE VOLUME PRESSAVG GPRESSAVG
ENERGY: 800000 0.0000 0.0000 0.0000 0.0000 -11750.6045 1561.9981 0.0000 0.0000 1379.8660 -8808.7404 235.9430 -10188.6064 -8805.9790 235.9430 -1295.7644 -1211.2712 29072.7523 -1295.7644 -1211.2712
ENERGY: 900000 0.0000 0.0000 0.0000 0.0000 -11489.0871 1708.8974 0.0000 0.0000 1593.1077 -8187.0820 272.4051 -9780.1897 -8184.0566 269.8219 1290.5293 1324.4140 29331.2984 3.8441 3.8520
TCL: Running 1000000 steps at 300 kelvin.
TCL: Setting parameter langevinTemp to 300
TCL: Running for 1000000 steps
ETITLE: TS BOND ANGLE DIHED IMPRP ELECT VDW BOUNDARY MISC KINETIC TOTAL TEMP POTENTIAL TOTAL3 TEMPAVG PRESSURE GPRESSURE VOLUME PRESSAVG GPRESSAVG
ENERGY: 900000 0.0000 0.0000 0.0000 0.0000 -11489.0871 1708.8974 0.0000 0.0000 1592.2923 -8187.8974 272.2657 -9780.1897 -8185.6169 272.2657 1249.3312 1323.7204 29331.2984 1249.3312 1323.7204
ENERGY: 1100000 0.0000 0.0000 0.0000 0.0000 -10812.6838 1493.3942 0.0000 0.0000 1820.1266 -7499.1630 311.2230 -9319.2896 -7495.3631 300.3897 384.2201 447.1830 30919.5978 3.0778 2.9385
ENERGY: 1300000 0.0000 0.0000 0.0000 0.0000 -10861.9609 1523.0336 0.0000 0.0000 1770.9366 -7567.9906 302.8120 -9338.9272 -7566.4803 300.6070 1350.1418 1388.3838 29373.4117 1.9842 2.0596
ENERGY: 1500000 0.0000 0.0000 0.0000 0.0000 -10682.4593 1354.2197 0.0000 0.0000 1789.8000 -7538.4395 306.0375 -9328.2395 -7537.3857 300.2077 -492.8130 -402.5042 30430.3270 3.2932 3.3136
ENERGY: 1700000 0.0000 0.0000 0.0000 0.0000 -10923.2790 1519.6967 0.0000 0.0000 1750.9422 -7652.6401 299.3932 -9403.5823 -7650.1792 300.1158 713.2851 788.6553 30044.8845 2.9599 2.7654
ENERGY: 1900000 0.0000 0.0000 0.0000 0.0000 -10785.9161 1464.3875 0.0000 0.0000 1778.7842 -7542.7445 304.1539 -9321.5287 -7539.4159 299.9990 230.3820 298.1877 30787.4679 3.2734 3.2266
TCL: Exiting due to exit command.
