Info: SIMULATION PARAMETERS:
Info: TIMESTEP               2
Info: NUMBER OF STEPS        0
Info: STEPS PER CYCLE        10
Info: PERIODIC CELL BASIS 1  37.968 0 0
Info: PERIODIC CELL BASIS 2  0 36.611 0
Info: PERIODIC CELL BASIS 3  0 0 31.855
Info: PERIODIC CELL CENTER   0 0 0
Info: WRAPPING WATERS AROUND PERIODIC BOUNDARIES ON OUTPUT.
Info: WRAPPING ALL CLUSTERS AROUND PERIODIC BOUNDARIES ON OUTPUT.
Info: FIRST LDB TIMESTEP     50
Info: LAST LDB TIMESTEP     -1
Info: HOM BACKGROUND SCALING 1
Info: PME BACKGROUND SCALING 1
Info: MIN ATOMS PER PATCH    40
Info: EMPTY PATCH LOAD       40 ATOMS
Info: INITIAL TEMPERATURE    300
Info: CENTER OF MASS MOVING INITIALLY? NO
Info: DIELECTRIC             1
Info: EXCLUDE                SCALED ONE-FOUR
Info: 1-4 ELECTROSTATICS SCALED BY 0.833333
Info: MODIFIED 1-4 VDW PARAMETERS WILL BE USED
Info: DCD FILENAME           mobley_9414831_equil.dcd
Info: DCD FREQUENCY          100000
Info: DCD FIRST STEP         100000
Info: DCD FILE WILL CONTAIN UNIT CELL DATA
Info: XST FILENAME           mobley_9414831_equil.xst
Info: XST FREQUENCY          100000
Info: NO VELOCITY DCD OUTPUT
Info: NO FORCE DCD OUTPUT
Info: OUTPUT FILENAME        mobley_9414831_equil
Info: BINARY OUTPUT FILES WILL BE USED
Info: RESTART FILENAME       mobley_9414831_equil.restart
Info: RESTART FREQUENCY      100000
Info: BINARY RESTART FILES WILL BE USED
Info: CUTOFF                 9
Info: PAIRLIST DISTANCE      11
Info: PAIRLIST SHRINK RATE   0.01
Info: PAIRLIST GROW RATE     0.01
Info: PAIRLIST TRIGGER       0.3
Info: PAIRLISTS PER CYCLE    2
Info: PAIRLISTS ENABLED
Info: MARGIN                 8
Info: HYDROGEN GROUP CUTOFF  2.5
Info: PATCH DIMENSION        21.5
Info: ENERGY OUTPUT STEPS    100000
Info: ENERGY EVALUATION STEPS    100000
Info: OUTPUT ENERGY PRECISION 4
Info: CROSSTERM ENERGY INCLUDED IN DIHEDRAL
Info: TIMING OUTPUT STEPS    1000000
Info: PRESSURE OUTPUT STEPS  100000
Info: FIXED ATOMS ACTIVE
Info: LANGEVIN DYNAMICS ACTIVE
Info: LANGEVIN TEMPERATURE   30
Info: LANGEVIN USING BBK INTEGRATOR
Info: LANGEVIN DAMPING COEFFICIENT IS 1 INVERSE PS
Info: LANGEVIN DYNAMICS APPLIED TO HYDROGENS
Info: LANGEVIN PISTON PRESSURE CONTROL ACTIVE
Info:        TARGET PRESSURE IS 1.01325 BAR
Info:     OSCILLATION PERIOD IS 50 FS
Info:             DECAY TIME IS 25 FS
Info:     PISTON TEMPERATURE IS 300 K
Info:       PRESSURE CONTROL IS GROUP-BASED
Info:    INITIAL STRAIN RATE IS 0 0 0
Info:       CELL FLUCTUATION IS ISOTROPIC
Info: PARTICLE MESH EWALD (PME) ACTIVE
Info: PME TOLERANCE               1e-06
Info: PME EWALD COEFFICIENT       0.348832
Info: PME INTERPOLATION ORDER     4
Info: PME GRID DIMENSIONS         40 40 32
Info: PME MAXIMUM GRID SPACING    1
Info: FULL ELECTROSTATIC EVALUATION FREQUENCY      2
Info: USING VERLET I (r-RESPA) MTS SCHEME.
Info: C1 SPLITTING OF LONG RANGE ELECTROSTATICS
Info: PLACING ATOMS IN PATCHES BY HYDROGEN GROUPS
Info: RIGID BONDS TO HYDROGEN : ALL
Info:         ERROR TOLERANCE : 1e-08
Info:          MAX ITERATIONS : 100
Info: RIGID WATER USING SETTLE ALGORITHM
Info: RANDOM NUMBER SEED     1743764231
Info: USE HYDROGEN BONDS?    NO
Info: Using AMBER format force field!
Info: AMBER PARM FILE        mobley_9414831.prmtop
Info: COORDINATE PDB         mobley_9414831.pdb
Info: Exclusions will be read from PARM file!
Info: SCNB (VDW SCALING)     2
Info: USING ARITHMETIC MEAN TO COMBINE L-J SIGMA PARAMETERS
Info: BINARY COORDINATES     mobley_9414831_min.coor
Info: SUMMARY OF PARAMETERS:
Info: 6 BONDS
Info: 5 ANGLES
Info:   5 HARMONIC
Info:   0 COSINE-BASED
Info: 3 DIHEDRAL
Info: 0 IMPROPER
Info: 0 CROSSTERM
Info: 0 VDW
Info: 21 VDW_PAIRS
Info: 0 NBTHOLE_PAIRS
Info: STRUCTURE SUMMARY:
Info: 2991 ATOMS
Info: 2992 BONDS
Info: 36 ANGLES
Info: 60 DIHEDRALS
Info: 0 IMPROPERS
Info: 0 CROSSTERMS
Info: 3072 EXCLUSIONS
Info: 21 FIXED ATOMS
Info: 2980 RIGID BONDS
Info: 10 RIGID BONDS BETWEEN FIXED ATOMS
Info: 5940 DEGREES OF FREEDOM
Info: 1001 HYDROGEN GROUPS
Info: 4 ATOMS IN LARGEST HYDROGEN GROUP
Info: 1001 MIGRATION GROUPS
Info: 4 ATOMS IN LARGEST MIGRATION GROUP
Info: 11 HYDROGEN GROUPS WITH ALL ATOMS FIXED
Info: TOTAL MASS = 17978 amu
Info: TOTAL CHARGE = 9.99738e-05 e
Info: MASS DENSITY = 0.674209 g/cm^3
Info: ATOM DENSITY = 0.0675475 atoms/A^3
Info: ADDED 0 IMPLICIT EXCLUSIONS
Info: NONBONDED TABLE R-SQUARED SPACING: 0.0625
Info: NONBONDED TABLE SIZE: 705 POINTS
Info: REMOVING COM VELOCITY -0.0660555 -0.0107637 0.106267
TCL: Running for 100000 steps
ETITLE: TS BOND ANGLE DIHED IMPRP ELECT VDW BOUNDARY MISC KINETIC TOTAL TEMP POTENTIAL TOTAL3 TEMPAVG PRESSURE GPRESSURE VOLUME PRESSAVG GPRESSAVG
ENERGY: 0 0.0000 0.0000 0.0000 0.0000 -13912.0538 2443.6052 0.0000 0.0000 1748.7957 -9719.6530 296.3077 -11468.4486 -9719.3046 296.3077 262.8800 299.8639 44279.9296 262.8800 299.8639
ENERGY: 100000 0.0000 0.0000 0.0000 0.0000 -14363.6965 2492.2626 0.0000 0.0000 176.5161 -11694.9178 29.9081 -11871.4338 -11694.6132 30.8637 -164.9526 -108.7065 29588.5859 4.6199 4.5788
TCL: Running 100000 steps at 60 kelvin.
TCL: Setting parameter langevinTemp to 60
TCL: Running for 100000 steps
ETITLE: TS BOND ANGLE DIHED IMPRP ELECT VDW BOUNDARY MISC KINETIC TOTAL TEMP POTENTIAL TOTAL3 TEMPAVG PRESSURE GPRESSURE VOLUME PRESSAVG GPRESSAVG
ENERGY: 100000 0.0000 0.0000 0.0000 0.0000 -14363.6965 2492.2626 0.0000 0.0000 176.4285 -11695.0053 29.8932 -11871.4338 -11694.6517 29.8932 -165.2569 -108.7106 29588.5859 -165.2569 -108.7106
ENERGY: 200000 0.0000 0.0000 0.0000 0.0000 -14182.1317 2359.8845 0.0000 0.0000 358.5777 -11463.6695 60.7557 -11822.2473 -11462.8568 59.8487 -791.9998 -707.0555 28914.6652 4.4101 4.4358
TCL: Running 100000 steps at 90 kelvin.
TCL: Setting parameter langevinTemp to 90
TCL: Running for 100000 steps
ETITLE: TS BOND ANGLE DIHED IMPRP ELECT VDW BOUNDARY MISC KINETIC TOTAL TEMP POTENTIAL TOTAL3 TEMPAVG PRESSURE GPRESSURE VOLUME PRESSAVG GPRESSAVG
ENERGY: 200000 0.0000 0.0000 0.0000 0.0000 -14182.1317 2359.8845 0.0000 0.0000 358.4069 -11463.8403 60.7268 -11822.2473 -11462.9552 60.7268 -785.2896 -706.6949 28914.6652 -785.2896 -706.6949
ENERGY: 300000 0.0000 0.0000 0.0000 0.0000 -14146.6751 2403.3584 0.0000 0.0000 524.2735 -11219.0432 88.8304 -11743.3167 -11217.5067 89.9711 -70.6370 -4.9892 28842.4563 4.5502 4.4961
TCL: Running 100000 steps at 120 kelvin.
TCL: Setting parameter langevinTemp to 120
TCL: Running for 100000 steps
ETITLE: TS BOND ANGLE DIHED IMPRP ELECT VDW BOUNDARY MISC KINETIC TOTAL TEMP POTENTIAL TOTAL3 TEMPAVG PRESSURE GPRESSURE VOLUME PRESSAVG GPRESSAVG
ENERGY: 300000 0.0000 0.0000 0.0000 0.0000 -14146.6751 2403.3584 0.0000 0.0000 524.0088 -11219.3078 88.7856 -11743.3167 -11217.8778 88.7856 -56.2137 -4.6318 28842.4563 -56.2137 -4.6318
ENERGY: 400000 0.0000 0.0000 0.0000 0.0000 -13781.4278 2206.7580 0.0000 0.0000 722.2661 -10852.4037 122.3774 -11574.6698 -10849.8294 119.7385 -975.3155 -898.6677 28999.6568 5.2376 5.2039
TCL: Running 100000 steps at 150 kelvin.
TCL: Setting parameter langevinTemp to 150
TCL: Running for 100000 steps
ETITLE: TS BOND ANGLE DIHED IMPRP ELECT VDW BOUNDARY MISC KINETIC TOTAL TEMP POTENTIAL TOTAL3 TEMPAVG PRESSURE GPRESSURE VOLUME PRESSAVG GPRESSAVG
ENERGY: 400000 0.0000 0.0000 0.0000 0.0000 -13781.4278 2206.7580 0.0000 0.0000 721.9136 -10852.7562 122.3177 -11574.6698 -10851.2615 122.3177 -961.6151 -898.2074 28999.6568 -961.6151 -898.2074
ENERGY: 500000 0.0000 0.0000 0.0000 0.0000 -13633.1828 2183.4057 0.0000 0.0000 884.7088 -10565.0683 149.9009 -11449.7771 -10561.9275 149.6269 -865.8646 -830.3590 29218.9874 3.4032 3.3835
TCL: Running 100000 steps at 180 kelvin.
TCL: Setting parameter langevinTemp to 180
TCL: Running for 100000 steps
ETITLE: TS BOND ANGLE DIHED IMPRP ELECT VDW BOUNDARY MISC KINETIC TOTAL TEMP POTENTIAL TOTAL3 TEMPAVG PRESSURE GPRESSURE VOLUME PRESSAVG GPRESSAVG
ENERGY: 500000 0.0000 0.0000 0.0000 0.0000 -13633.1828 2183.4057 0.0000 0.0000 884.2481 -10565.5290 149.8229 -11449.7771 -10563.2912 149.8229 -885.4642 -830.5080 29218.9874 -885.4642 -830.5080
ENERGY: 600000 0.0000 0.0000 0.0000 0.0000 -13386.7349 2197.4808 0.0000 0.0000 1052.9638 -10136.2904 178.4092 -11189.2542 -10135.1022 179.6397 -4.9976 84.9656 29634.8099 3.7063 3.5867
TCL: Running 100000 steps at 210 kelvin.
TCL: Setting parameter langevinTemp to 210
TCL: Running for 100000 steps
ETITLE: TS BOND ANGLE DIHED IMPRP ELECT VDW BOUNDARY MISC KINETIC TOTAL TEMP POTENTIAL TOTAL3 TEMPAVG PRESSURE GPRESSURE VOLUME PRESSAVG GPRESSAVG
ENERGY: 600000 0.0000 0.0000 0.0000 0.0000 -13386.7349 2197.4808 0.0000 0.0000 1052.4253 -10136.8289 178.3180 -11189.2542 -10134.8754 178.3180 21.4268 84.7272 29634.8099 21.4268 84.7272
ENERGY: 700000 0.0000 0.0000 0.0000 0.0000 -12672.7527 1952.1133 0.0000 0.0000 1215.4059 -9505.2335 205.9327 -10720.6394 -9503.5837 210.0178 308.5553 340.6941 28921.8651 3.0377 2.9783
TCL: Running 100000 steps at 240 kelvin.
TCL: Setting parameter langevinTemp to 240
TCL: Running for 100000 steps
ETITLE: TS BOND ANGLE DIHED IMPRP ELECT VDW BOUNDARY MISC KINETIC TOTAL TEMP POTENTIAL TOTAL3 TEMPAVG PRESSURE GPRESSURE VOLUME PRESSAVG GPRESSAVG
ENERGY: 700000 0.0000 0.0000 0.0000 0.0000 -12672.7527 1952.1133 0.0000 0.0000 1214.7827 -9505.8567 205.8271 -10720.6394 -9503.9124 205.8271 269.9811 340.3068 28921.8651 269.9811 340.3068
ENERGY: 800000 0.0000 0.0000 0.0000 0.0000 -11883.7950 1730.1219 0.0000 0.0000 1437.7302 -8715.9429 243.6023 -10153.6731 -8711.8569 239.6023 290.7128 322.7756 29347.4390 2.5072 2.6170
TCL: Running 100000 steps at 270 kelvin.
TCL: Setting parameter langevinTemp to 270
TCL: Running for 100000 steps
ETITLE: TS BOND ANGLE DIHED IMPRP ELECT VDW BOUNDARY MISC KINETIC TOTAL TEMP POTENTIAL TOTAL3 TEMPAVG PRESSURE GPRESSURE VOLUME PRESSAVG GPRESSAVG
ENERGY: 800000 0.0000 0.0000 0.0000 0.0000 -11883.7950 1730.1219 0.0000 0.0000 1437.0247 -8716.6484 243.4827 -10153.6731 -8714.2175 243.4827 250.9811 323.6996 29347.4390 250.9811 323.6996
ENERGY: 900000 0.0000 0.0000 0.0000 0.0000 -11334.6634 1521.2983 0.0000 0.0000 1609.0696 -8204.2954 272.6332 -9813.3651 -8202.0125 269.5974 -423.9701 -368.9460 29910.2578 3.0021 2.8803
TCL: Running 1000000 steps at 300 kelvin.
TCL: Setting parameter langevinTemp to 300
TCL: Running for 1000000 steps
ETITLE: TS BOND ANGLE DIHED IMPRP ELECT VDW BOUNDARY MISC KINETIC TOTAL TEMP POTENTIAL TOTAL3 TEMPAVG PRESSURE GPRESSURE VOLUME PRESSAVG GPRESSAVG
ENERGY: 900000 0.0000 0.0000 0.0000 0.0000 -11334.6634 1521.2983 0.0000 0.0000 1608.2905 -8205.0746 272.5012 -9813.3651 -8201.5435 272.5012 -454.7297 -371.3661 29910.2578 -454.7297 -371.3661
ENERGY: 1100000 0.0000 0.0000 0.0000 0.0000 -10834.6200 1458.4236 0.0000 0.0000 1738.6200 -7637.5763 294.5836 -9376.1964 -7635.6656 300.4656 119.1183 122.6987 30740.2917 3.1247 3.1833
ENERGY: 1300000 0.0000 0.0000 0.0000 0.0000 -10872.0725 1464.9094 0.0000 0.0000 1795.8772 -7611.2859 304.2850 -9407.1631 -7607.5197 299.9965 151.0156 265.6026 30700.3781 2.7954 2.6453
ENERGY: 1500000 0.0000 0.0000 0.0000 0.0000 -10829.8272 1402.9326 0.0000 0.0000 1787.5226 -7639.3720 302.8695 -9426.8946 -7636.3676 299.8847 -596.8640 -437.9273 30852.6925 3.3084 3.4081
ENERGY: 1700000 0.0000 0.0000 0.0000 0.0000 -10802.4641 1480.1063 0.0000 0.0000 1768.8701 -7553.4877 299.7091 -9322.3578 -7550.5590 299.8063 274.6949 371.6324 30912.3778 2.8396 2.8715
ENERGY: 1900000 0.0000 0.0000 0.0000 0.0000 -10755.2884 1292.9003 0.0000 0.0000 1792.4095 -7669.9787 303.6975 -9462.3882 -7666.8500 299.6729 -1563.9462 -1468.4102 30919.0814 2.9074 2.7262
TCL: Exiting due to exit command.
