Info: SIMULATION PARAMETERS:
Info: TIMESTEP               2
Info: NUMBER OF STEPS        0
Info: STEPS PER CYCLE        10
Info: PERIODIC CELL BASIS 1  36.592 0 0
Info: PERIODIC CELL BASIS 2  0 35.411 0
Info: PERIODIC CELL BASIS 3  0 0 33.876
Info: PERIODIC CELL CENTER   0 0 0
Info: WRAPPING WATERS AROUND PERIODIC BOUNDARIES ON OUTPUT.
Info: WRAPPING ALL CLUSTERS AROUND PERIODIC BOUNDARIES ON OUTPUT.
Info: FIRST LDB TIMESTEP     50
Info: LAST LDB TIMESTEP     -1
Info: HOM BACKGROUND SCALING 1
Info: PME BACKGROUND SCALING 1
Info: MIN ATOMS PER PATCH    40
Info: EMPTY PATCH LOAD       40 ATOMS
Info: INITIAL TEMPERATURE    300
Info: CENTER OF MASS MOVING INITIALLY? NO
Info: DIELECTRIC             1
Info: EXCLUDE                SCALED ONE-FOUR
Info: 1-4 ELECTROSTATICS SCALED BY 0.833333
Info: MODIFIED 1-4 VDW PARAMETERS WILL BE USED
Info: DCD FILENAME           mobley_7364468_equil.dcd
Info: DCD FREQUENCY          100000
Info: DCD FIRST STEP         100000
Info: DCD FILE WILL CONTAIN UNIT CELL DATA
Info: XST FILENAME           mobley_7364468_equil.xst
Info: XST FREQUENCY          100000
Info: NO VELOCITY DCD OUTPUT
Info: NO FORCE DCD OUTPUT
Info: OUTPUT FILENAME        mobley_7364468_equil
Info: BINARY OUTPUT FILES WILL BE USED
Info: RESTART FILENAME       mobley_7364468_equil.restart
Info: RESTART FREQUENCY      100000
Info: BINARY RESTART FILES WILL BE USED
Info: CUTOFF                 9
Info: PAIRLIST DISTANCE      11
Info: PAIRLIST SHRINK RATE   0.01
Info: PAIRLIST GROW RATE     0.01
Info: PAIRLIST TRIGGER       0.3
Info: PAIRLISTS PER CYCLE    2
Info: PAIRLISTS ENABLED
Info: MARGIN                 8
Info: HYDROGEN GROUP CUTOFF  2.5
Info: PATCH DIMENSION        21.5
Info: ENERGY OUTPUT STEPS    100000
Info: ENERGY EVALUATION STEPS    100000
Info: OUTPUT ENERGY PRECISION 4
Info: CROSSTERM ENERGY INCLUDED IN DIHEDRAL
Info: TIMING OUTPUT STEPS    1000000
Info: PRESSURE OUTPUT STEPS  100000
Info: FIXED ATOMS ACTIVE
Info: LANGEVIN DYNAMICS ACTIVE
Info: LANGEVIN TEMPERATURE   30
Info: LANGEVIN USING BBK INTEGRATOR
Info: LANGEVIN DAMPING COEFFICIENT IS 1 INVERSE PS
Info: LANGEVIN DYNAMICS APPLIED TO HYDROGENS
Info: LANGEVIN PISTON PRESSURE CONTROL ACTIVE
Info:        TARGET PRESSURE IS 1.01325 BAR
Info:     OSCILLATION PERIOD IS 50 FS
Info:             DECAY TIME IS 25 FS
Info:     PISTON TEMPERATURE IS 300 K
Info:       PRESSURE CONTROL IS GROUP-BASED
Info:    INITIAL STRAIN RATE IS 0 0 0
Info:       CELL FLUCTUATION IS ISOTROPIC
Info: PARTICLE MESH EWALD (PME) ACTIVE
Info: PME TOLERANCE               1e-06
Info: PME EWALD COEFFICIENT       0.348832
Info: PME INTERPOLATION ORDER     4
Info: PME GRID DIMENSIONS         40 36 36
Info: PME MAXIMUM GRID SPACING    1
Info: FULL ELECTROSTATIC EVALUATION FREQUENCY      2
Info: USING VERLET I (r-RESPA) MTS SCHEME.
Info: C1 SPLITTING OF LONG RANGE ELECTROSTATICS
Info: PLACING ATOMS IN PATCHES BY HYDROGEN GROUPS
Info: RIGID BONDS TO HYDROGEN : ALL
Info:         ERROR TOLERANCE : 1e-08
Info:          MAX ITERATIONS : 100
Info: RIGID WATER USING SETTLE ALGORITHM
Info: RANDOM NUMBER SEED     1743765097
Info: USE HYDROGEN BONDS?    NO
Info: Using AMBER format force field!
Info: AMBER PARM FILE        mobley_7364468.prmtop
Info: COORDINATE PDB         mobley_7364468.pdb
Info: Exclusions will be read from PARM file!
Info: SCNB (VDW SCALING)     2
Info: USING ARITHMETIC MEAN TO COMBINE L-J SIGMA PARAMETERS
Info: BINARY COORDINATES     mobley_7364468_min.coor
Info: SUMMARY OF PARAMETERS:
Info: 10 BONDS
Info: 15 ANGLES
Info:   15 HARMONIC
Info:   0 COSINE-BASED
Info: 10 DIHEDRAL
Info: 0 IMPROPER
Info: 0 CROSSTERM
Info: 0 VDW
Info: 28 VDW_PAIRS
Info: 0 NBTHOLE_PAIRS
Info: STRUCTURE SUMMARY:
Info: 2913 ATOMS
Info: 2913 BONDS
Info: 45 ANGLES
Info: 69 DIHEDRALS
Info: 0 IMPROPERS
Info: 0 CROSSTERMS
Info: 3017 EXCLUSIONS
Info: 24 FIXED ATOMS
Info: 2903 RIGID BONDS
Info: 14 RIGID BONDS BETWEEN FIXED ATOMS
Info: 5778 DEGREES OF FREEDOM
Info: 973 HYDROGEN GROUPS
Info: 4 ATOMS IN LARGEST HYDROGEN GROUP
Info: 973 MIGRATION GROUPS
Info: 4 ATOMS IN LARGEST MIGRATION GROUP
Info: 10 HYDROGEN GROUPS WITH ALL ATOMS FIXED
Info: TOTAL MASS = 17487.6 amu
Info: TOTAL CHARGE = -3.72529e-08 e
Info: MASS DENSITY = 0.661566 g/cm^3
Info: ATOM DENSITY = 0.0663627 atoms/A^3
Info: ADDED 0 IMPLICIT EXCLUSIONS
Info: NONBONDED TABLE R-SQUARED SPACING: 0.0625
Info: NONBONDED TABLE SIZE: 705 POINTS
Info: REMOVING COM VELOCITY 0.0853192 0.143005 0.0394498
TCL: Running for 100000 steps
ETITLE: TS BOND ANGLE DIHED IMPRP ELECT VDW BOUNDARY MISC KINETIC TOTAL TEMP POTENTIAL TOTAL3 TEMPAVG PRESSURE GPRESSURE VOLUME PRESSAVG GPRESSAVG
ENERGY: 0 0.0000 0.0000 0.0000 0.0000 -13506.4045 2378.3748 0.0000 0.0000 1731.5235 -9396.5062 301.6069 -11128.0297 -9396.1636 301.6069 637.6703 677.1306 43895.1425 637.6703 677.1306
ENERGY: 100000 0.0000 0.0000 0.0000 0.0000 -14047.9403 2465.2071 0.0000 0.0000 175.3275 -11407.4056 30.5396 -11582.7332 -11407.2388 30.9403 562.5758 598.7453 28390.3135 2.8830 2.8780
TCL: Running 100000 steps at 60 kelvin.
TCL: Setting parameter langevinTemp to 60
TCL: Running for 100000 steps
ETITLE: TS BOND ANGLE DIHED IMPRP ELECT VDW BOUNDARY MISC KINETIC TOTAL TEMP POTENTIAL TOTAL3 TEMPAVG PRESSURE GPRESSURE VOLUME PRESSAVG GPRESSAVG
ENERGY: 100000 0.0000 0.0000 0.0000 0.0000 -14047.9403 2465.2071 0.0000 0.0000 175.2395 -11407.4936 30.5242 -11582.7332 -11407.1051 30.5242 545.4938 598.2336 28390.3135 545.4938 598.2336
ENERGY: 200000 0.0000 0.0000 0.0000 0.0000 -13766.5728 2267.3001 0.0000 0.0000 347.4712 -11151.8015 60.5246 -11499.2726 -11151.0227 59.9852 -831.7688 -789.0410 28679.2483 3.7509 3.7662
TCL: Running 100000 steps at 90 kelvin.
TCL: Setting parameter langevinTemp to 90
TCL: Running for 100000 steps
ETITLE: TS BOND ANGLE DIHED IMPRP ELECT VDW BOUNDARY MISC KINETIC TOTAL TEMP POTENTIAL TOTAL3 TEMPAVG PRESSURE GPRESSURE VOLUME PRESSAVG GPRESSAVG
ENERGY: 200000 0.0000 0.0000 0.0000 0.0000 -13766.5728 2267.3001 0.0000 0.0000 347.3010 -11151.9716 60.4949 -11499.2726 -11151.1681 60.4949 -839.5007 -789.0908 28679.2483 -839.5007 -789.0908
ENERGY: 300000 0.0000 0.0000 0.0000 0.0000 -13752.5361 2308.8214 0.0000 0.0000 527.7046 -10916.0101 91.9187 -11443.7147 -10914.7668 89.8267 -234.4336 -223.5856 28602.5815 3.5976 3.5841
TCL: Running 100000 steps at 120 kelvin.
TCL: Setting parameter langevinTemp to 120
TCL: Running for 100000 steps
ETITLE: TS BOND ANGLE DIHED IMPRP ELECT VDW BOUNDARY MISC KINETIC TOTAL TEMP POTENTIAL TOTAL3 TEMPAVG PRESSURE GPRESSURE VOLUME PRESSAVG GPRESSAVG
ENERGY: 300000 0.0000 0.0000 0.0000 0.0000 -13752.5361 2308.8214 0.0000 0.0000 527.4433 -10916.2713 91.8732 -11443.7147 -10915.1821 91.8732 -253.7449 -223.3081 28602.5815 -253.7449 -223.3081
ENERGY: 400000 0.0000 0.0000 0.0000 0.0000 -13558.3442 2277.5413 0.0000 0.0000 689.8432 -10590.9597 120.1609 -11280.8029 -10589.8799 120.0542 88.2224 114.9313 28599.3881 5.2942 5.2364
TCL: Running 100000 steps at 150 kelvin.
TCL: Setting parameter langevinTemp to 150
TCL: Running for 100000 steps
ETITLE: TS BOND ANGLE DIHED IMPRP ELECT VDW BOUNDARY MISC KINETIC TOTAL TEMP POTENTIAL TOTAL3 TEMPAVG PRESSURE GPRESSURE VOLUME PRESSAVG GPRESSAVG
ENERGY: 400000 0.0000 0.0000 0.0000 0.0000 -13558.3442 2277.5413 0.0000 0.0000 689.5004 -10591.3024 120.1012 -11280.8029 -10590.1236 120.1012 72.6236 114.7747 28599.3881 72.6236 114.7747
ENERGY: 500000 0.0000 0.0000 0.0000 0.0000 -13367.9077 2204.5373 0.0000 0.0000 846.7331 -10316.6373 147.4889 -11163.3704 -10315.5857 149.9568 -241.2528 -208.6851 28557.0369 2.8047 2.7453
TCL: Running 100000 steps at 180 kelvin.
TCL: Setting parameter langevinTemp to 180
TCL: Running for 100000 steps
ETITLE: TS BOND ANGLE DIHED IMPRP ELECT VDW BOUNDARY MISC KINETIC TOTAL TEMP POTENTIAL TOTAL3 TEMPAVG PRESSURE GPRESSURE VOLUME PRESSAVG GPRESSAVG
ENERGY: 500000 0.0000 0.0000 0.0000 0.0000 -13367.9077 2204.5373 0.0000 0.0000 846.3190 -10317.0515 147.4168 -11163.3704 -10315.2069 147.4168 -246.6671 -210.3543 28557.0369 -246.6671 -210.3543
ENERGY: 600000 0.0000 0.0000 0.0000 0.0000 -13061.6362 2166.3551 0.0000 0.0000 1029.4607 -9865.8204 179.3175 -10895.2811 -9863.0307 179.3340 396.1206 513.4048 28678.9395 4.8387 4.8235
TCL: Running 100000 steps at 210 kelvin.
TCL: Setting parameter langevinTemp to 210
TCL: Running for 100000 steps
ETITLE: TS BOND ANGLE DIHED IMPRP ELECT VDW BOUNDARY MISC KINETIC TOTAL TEMP POTENTIAL TOTAL3 TEMPAVG PRESSURE GPRESSURE VOLUME PRESSAVG GPRESSAVG
ENERGY: 600000 0.0000 0.0000 0.0000 0.0000 -13061.6362 2166.3551 0.0000 0.0000 1028.9398 -9866.3413 179.2267 -10895.2811 -9864.6808 179.2267 455.2440 514.0718 28678.9395 455.2440 514.0718
ENERGY: 700000 0.0000 0.0000 0.0000 0.0000 -12267.6085 1868.9961 0.0000 0.0000 1220.3582 -9178.2541 212.5691 -10398.6123 -9176.3462 209.8828 76.3186 158.5918 28273.3830 4.3134 4.4543
TCL: Running 100000 steps at 240 kelvin.
TCL: Setting parameter langevinTemp to 240
TCL: Running for 100000 steps
ETITLE: TS BOND ANGLE DIHED IMPRP ELECT VDW BOUNDARY MISC KINETIC TOTAL TEMP POTENTIAL TOTAL3 TEMPAVG PRESSURE GPRESSURE VOLUME PRESSAVG GPRESSAVG
ENERGY: 700000 0.0000 0.0000 0.0000 0.0000 -12267.6085 1868.9961 0.0000 0.0000 1219.7562 -9178.8561 212.4643 -10398.6123 -9176.9483 212.4643 86.0694 157.3070 28273.3830 86.0694 157.3070
ENERGY: 800000 0.0000 0.0000 0.0000 0.0000 -11693.0732 1721.4198 0.0000 0.0000 1403.6890 -8567.9644 244.5027 -9971.6534 -8565.3091 239.7827 217.5212 312.5265 28818.2055 4.4306 4.4229
TCL: Running 100000 steps at 270 kelvin.
TCL: Setting parameter langevinTemp to 270
TCL: Running for 100000 steps
ETITLE: TS BOND ANGLE DIHED IMPRP ELECT VDW BOUNDARY MISC KINETIC TOTAL TEMP POTENTIAL TOTAL3 TEMPAVG PRESSURE GPRESSURE VOLUME PRESSAVG GPRESSAVG
ENERGY: 800000 0.0000 0.0000 0.0000 0.0000 -11693.0732 1721.4198 0.0000 0.0000 1403.0098 -8568.6436 244.3844 -9971.6534 -8566.4206 244.3844 216.6878 312.4503 28818.2055 216.6878 312.4503
ENERGY: 900000 0.0000 0.0000 0.0000 0.0000 -11016.1965 1467.1654 0.0000 0.0000 1573.3472 -7975.6840 274.0548 -9549.0311 -7973.1463 270.0003 -706.9566 -622.6702 29528.8295 3.6629 3.5240
TCL: Running 1000000 steps at 300 kelvin.
TCL: Setting parameter langevinTemp to 300
TCL: Running for 1000000 steps
ETITLE: TS BOND ANGLE DIHED IMPRP ELECT VDW BOUNDARY MISC KINETIC TOTAL TEMP POTENTIAL TOTAL3 TEMPAVG PRESSURE GPRESSURE VOLUME PRESSAVG GPRESSAVG
ENERGY: 900000 0.0000 0.0000 0.0000 0.0000 -11016.1965 1467.1654 0.0000 0.0000 1572.5706 -7976.4605 273.9195 -9549.0311 -7973.5658 273.9195 -714.7715 -624.0524 29528.8295 -714.7715 -624.0524
ENERGY: 1100000 0.0000 0.0000 0.0000 0.0000 -10654.7817 1474.8105 0.0000 0.0000 1785.9417 -7394.0295 311.0858 -9179.9712 -7389.6232 300.7204 349.9083 466.3123 30183.3946 2.4723 2.3542
ENERGY: 1300000 0.0000 0.0000 0.0000 0.0000 -10649.9675 1409.6230 0.0000 0.0000 1679.2531 -7561.0913 292.5021 -9240.3444 -7558.0749 300.4010 -348.4982 -258.3441 29960.4376 3.0331 2.9891
ENERGY: 1500000 0.0000 0.0000 0.0000 0.0000 -10555.2991 1369.2878 0.0000 0.0000 1810.0157 -7375.9957 315.2791 -9186.0113 -7372.3666 300.3435 -296.6456 -178.2541 30049.5233 2.8799 2.9469
ENERGY: 1700000 0.0000 0.0000 0.0000 0.0000 -10479.0473 1423.7007 0.0000 0.0000 1715.1927 -7340.1538 298.7623 -9055.3466 -7335.1346 300.6844 304.5823 402.7861 29922.6692 3.3596 3.2386
ENERGY: 1900000 0.0000 0.0000 0.0000 0.0000 -10511.1401 1356.5479 0.0000 0.0000 1786.1266 -7368.4656 311.1180 -9154.5922 -7364.0357 300.7897 -675.6503 -563.5495 30678.1392 3.1774 3.1612
TCL: Exiting due to exit command.
