Info: SIMULATION PARAMETERS:
Info: TIMESTEP               2
Info: NUMBER OF STEPS        0
Info: STEPS PER CYCLE        10
Info: PERIODIC CELL BASIS 1  36.592 0 0
Info: PERIODIC CELL BASIS 2  0 34.26 0
Info: PERIODIC CELL BASIS 3  0 0 34.954
Info: PERIODIC CELL CENTER   0 0 0
Info: WRAPPING WATERS AROUND PERIODIC BOUNDARIES ON OUTPUT.
Info: WRAPPING ALL CLUSTERS AROUND PERIODIC BOUNDARIES ON OUTPUT.
Info: FIRST LDB TIMESTEP     50
Info: LAST LDB TIMESTEP     -1
Info: HOM BACKGROUND SCALING 1
Info: PME BACKGROUND SCALING 1
Info: MIN ATOMS PER PATCH    40
Info: EMPTY PATCH LOAD       40 ATOMS
Info: INITIAL TEMPERATURE    300
Info: CENTER OF MASS MOVING INITIALLY? NO
Info: DIELECTRIC             1
Info: EXCLUDE                SCALED ONE-FOUR
Info: 1-4 ELECTROSTATICS SCALED BY 0.833333
Info: MODIFIED 1-4 VDW PARAMETERS WILL BE USED
Info: DCD FILENAME           mobley_8191186_equil.dcd
Info: DCD FREQUENCY          100000
Info: DCD FIRST STEP         100000
Info: DCD FILE WILL CONTAIN UNIT CELL DATA
Info: XST FILENAME           mobley_8191186_equil.xst
Info: XST FREQUENCY          100000
Info: NO VELOCITY DCD OUTPUT
Info: NO FORCE DCD OUTPUT
Info: OUTPUT FILENAME        mobley_8191186_equil
Info: BINARY OUTPUT FILES WILL BE USED
Info: RESTART FILENAME       mobley_8191186_equil.restart
Info: RESTART FREQUENCY      100000
Info: BINARY RESTART FILES WILL BE USED
Info: CUTOFF                 9
Info: PAIRLIST DISTANCE      11
Info: PAIRLIST SHRINK RATE   0.01
Info: PAIRLIST GROW RATE     0.01
Info: PAIRLIST TRIGGER       0.3
Info: PAIRLISTS PER CYCLE    2
Info: PAIRLISTS ENABLED
Info: MARGIN                 8
Info: HYDROGEN GROUP CUTOFF  2.5
Info: PATCH DIMENSION        21.5
Info: ENERGY OUTPUT STEPS    100000
Info: ENERGY EVALUATION STEPS    100000
Info: OUTPUT ENERGY PRECISION 4
Info: CROSSTERM ENERGY INCLUDED IN DIHEDRAL
Info: TIMING OUTPUT STEPS    1000000
Info: PRESSURE OUTPUT STEPS  100000
Info: FIXED ATOMS ACTIVE
Info: LANGEVIN DYNAMICS ACTIVE
Info: LANGEVIN TEMPERATURE   30
Info: LANGEVIN USING BBK INTEGRATOR
Info: LANGEVIN DAMPING COEFFICIENT IS 1 INVERSE PS
Info: LANGEVIN DYNAMICS APPLIED TO HYDROGENS
Info: LANGEVIN PISTON PRESSURE CONTROL ACTIVE
Info:        TARGET PRESSURE IS 1.01325 BAR
Info:     OSCILLATION PERIOD IS 50 FS
Info:             DECAY TIME IS 25 FS
Info:     PISTON TEMPERATURE IS 300 K
Info:       PRESSURE CONTROL IS GROUP-BASED
Info:    INITIAL STRAIN RATE IS 0 0 0
Info:       CELL FLUCTUATION IS ISOTROPIC
Info: PARTICLE MESH EWALD (PME) ACTIVE
Info: PME TOLERANCE               1e-06
Info: PME EWALD COEFFICIENT       0.348832
Info: PME INTERPOLATION ORDER     4
Info: PME GRID DIMENSIONS         40 36 36
Info: PME MAXIMUM GRID SPACING    1
Info: FULL ELECTROSTATIC EVALUATION FREQUENCY      2
Info: USING VERLET I (r-RESPA) MTS SCHEME.
Info: C1 SPLITTING OF LONG RANGE ELECTROSTATICS
Info: PLACING ATOMS IN PATCHES BY HYDROGEN GROUPS
Info: RIGID BONDS TO HYDROGEN : ALL
Info:         ERROR TOLERANCE : 1e-08
Info:          MAX ITERATIONS : 100
Info: RIGID WATER USING SETTLE ALGORITHM
Info: RANDOM NUMBER SEED     1743682261
Info: USE HYDROGEN BONDS?    NO
Info: Using AMBER format force field!
Info: AMBER PARM FILE        mobley_8191186.prmtop
Info: COORDINATE PDB         mobley_8191186.pdb
Info: Exclusions will be read from PARM file!
Info: SCNB (VDW SCALING)     2
Info: USING ARITHMETIC MEAN TO COMBINE L-J SIGMA PARAMETERS
Info: BINARY COORDINATES     mobley_8191186_min.coor
Info: SUMMARY OF PARAMETERS:
Info: 6 BONDS
Info: 6 ANGLES
Info:   6 HARMONIC
Info:   0 COSINE-BASED
Info: 3 DIHEDRAL
Info: 0 IMPROPER
Info: 0 CROSSTERM
Info: 0 VDW
Info: 21 VDW_PAIRS
Info: 0 NBTHOLE_PAIRS
Info: STRUCTURE SUMMARY:
Info: 2984 ATOMS
Info: 2983 BONDS
Info: 12 ANGLES
Info: 15 DIHEDRALS
Info: 0 IMPROPERS
Info: 0 CROSSTERMS
Info: 3004 EXCLUSIONS
Info: 8 FIXED ATOMS
Info: 2978 RIGID BONDS
Info: 2 RIGID BONDS BETWEEN FIXED ATOMS
Info: 5952 DEGREES OF FREEDOM
Info: 998 HYDROGEN GROUPS
Info: 3 ATOMS IN LARGEST HYDROGEN GROUP
Info: 998 MIGRATION GROUPS
Info: 3 ATOMS IN LARGEST MIGRATION GROUP
Info: 6 HYDROGEN GROUPS WITH ALL ATOMS FIXED
Info: TOTAL MASS = 17990.4 amu
Info: TOTAL CHARGE = 9.99831e-05 e
Info: MASS DENSITY = 0.681756 g/cm^3
Info: ATOM DENSITY = 0.0680971 atoms/A^3
Info: ADDED 0 IMPLICIT EXCLUSIONS
Info: NONBONDED TABLE R-SQUARED SPACING: 0.0625
Info: NONBONDED TABLE SIZE: 705 POINTS
Info: REMOVING COM VELOCITY 0.0218865 -0.0250764 -0.090132
TCL: Running for 100000 steps
ETITLE: TS BOND ANGLE DIHED IMPRP ELECT VDW BOUNDARY MISC KINETIC TOTAL TEMP POTENTIAL TOTAL3 TEMPAVG PRESSURE GPRESSURE VOLUME PRESSAVG GPRESSAVG
ENERGY: 0 0.0000 0.0000 0.0000 0.0000 -13807.4634 2406.4379 0.0000 0.0000 1760.2722 -9640.7533 297.6510 -11401.0256 -9640.4093 297.6510 308.9376 340.8540 43819.7997 308.9376 340.8540
ENERGY: 100000 0.0000 0.0000 0.0000 0.0000 -14296.0793 2415.8769 0.0000 0.0000 183.9201 -11696.2824 31.0997 -11880.2024 -11695.7728 30.9404 -736.8035 -695.2896 30387.9648 4.3240 4.3284
TCL: Running 100000 steps at 60 kelvin.
TCL: Setting parameter langevinTemp to 60
TCL: Running for 100000 steps
ETITLE: TS BOND ANGLE DIHED IMPRP ELECT VDW BOUNDARY MISC KINETIC TOTAL TEMP POTENTIAL TOTAL3 TEMPAVG PRESSURE GPRESSURE VOLUME PRESSAVG GPRESSAVG
ENERGY: 100000 0.0000 0.0000 0.0000 0.0000 -14296.0793 2415.8769 0.0000 0.0000 183.8313 -11696.3711 31.0847 -11880.2024 -11695.9668 31.0847 -735.0387 -695.3323 30387.9648 -735.0387 -695.3323
ENERGY: 200000 0.0000 0.0000 0.0000 0.0000 -14338.2896 2502.7963 0.0000 0.0000 353.8469 -11481.6464 59.8333 -11835.4933 -11480.8223 59.9657 172.9036 213.7724 29771.9798 4.2886 4.3698
TCL: Running 100000 steps at 90 kelvin.
TCL: Setting parameter langevinTemp to 90
TCL: Running for 100000 steps
ETITLE: TS BOND ANGLE DIHED IMPRP ELECT VDW BOUNDARY MISC KINETIC TOTAL TEMP POTENTIAL TOTAL3 TEMPAVG PRESSURE GPRESSURE VOLUME PRESSAVG GPRESSAVG
ENERGY: 200000 0.0000 0.0000 0.0000 0.0000 -14338.2896 2502.7963 0.0000 0.0000 353.6641 -11481.8292 59.8024 -11835.4933 -11481.2037 59.8024 160.2419 213.5309 29771.9798 160.2419 213.5309
ENERGY: 300000 0.0000 0.0000 0.0000 0.0000 -14007.4625 2250.0265 0.0000 0.0000 530.2893 -11227.1467 89.6686 -11757.4360 -11225.8517 89.8598 -1497.6498 -1469.8053 29771.6523 3.5692 3.4054
TCL: Running 100000 steps at 120 kelvin.
TCL: Setting parameter langevinTemp to 120
TCL: Running for 100000 steps
ETITLE: TS BOND ANGLE DIHED IMPRP ELECT VDW BOUNDARY MISC KINETIC TOTAL TEMP POTENTIAL TOTAL3 TEMPAVG PRESSURE GPRESSURE VOLUME PRESSAVG GPRESSAVG
ENERGY: 300000 0.0000 0.0000 0.0000 0.0000 -14007.4625 2250.0265 0.0000 0.0000 530.0321 -11227.4039 89.6251 -11757.4360 -11226.2781 89.6251 -1525.0386 -1469.4742 29771.6523 -1525.0386 -1469.4742
ENERGY: 400000 0.0000 0.0000 0.0000 0.0000 -14092.4512 2437.4495 0.0000 0.0000 708.4465 -10946.5552 119.7938 -11655.0017 -10945.2284 119.8053 590.4744 599.5116 29205.1504 4.2687 4.4380
TCL: Running 100000 steps at 150 kelvin.
TCL: Setting parameter langevinTemp to 150
TCL: Running for 100000 steps
ETITLE: TS BOND ANGLE DIHED IMPRP ELECT VDW BOUNDARY MISC KINETIC TOTAL TEMP POTENTIAL TOTAL3 TEMPAVG PRESSURE GPRESSURE VOLUME PRESSAVG GPRESSAVG
ENERGY: 400000 0.0000 0.0000 0.0000 0.0000 -14092.4512 2437.4495 0.0000 0.0000 708.0977 -10946.9040 119.7349 -11655.0017 -10945.4346 119.7349 563.0320 599.7386 29205.1504 563.0320 599.7386
ENERGY: 500000 0.0000 0.0000 0.0000 0.0000 -13787.7109 2353.0714 0.0000 0.0000 881.0064 -10553.6332 148.9726 -11434.6395 -10551.8338 150.2205 482.0321 497.5996 29463.3257 2.7802 2.8252
TCL: Running 100000 steps at 180 kelvin.
TCL: Setting parameter langevinTemp to 180
TCL: Running for 100000 steps
ETITLE: TS BOND ANGLE DIHED IMPRP ELECT VDW BOUNDARY MISC KINETIC TOTAL TEMP POTENTIAL TOTAL3 TEMPAVG PRESSURE GPRESSURE VOLUME PRESSAVG GPRESSAVG
ENERGY: 500000 0.0000 0.0000 0.0000 0.0000 -13787.7109 2353.0714 0.0000 0.0000 880.5564 -10554.0831 148.8965 -11434.6395 -10552.3675 148.8965 460.4649 497.6958 29463.3257 460.4649 497.6958
ENERGY: 600000 0.0000 0.0000 0.0000 0.0000 -13229.1456 2108.4469 0.0000 0.0000 1033.7648 -10086.9339 174.8031 -11120.6986 -10084.8676 179.9490 -239.8511 -189.0345 29293.6347 3.5994 3.4746
TCL: Running 100000 steps at 210 kelvin.
TCL: Setting parameter langevinTemp to 210
TCL: Running for 100000 steps
ETITLE: TS BOND ANGLE DIHED IMPRP ELECT VDW BOUNDARY MISC KINETIC TOTAL TEMP POTENTIAL TOTAL3 TEMPAVG PRESSURE GPRESSURE VOLUME PRESSAVG GPRESSAVG
ENERGY: 600000 0.0000 0.0000 0.0000 0.0000 -13229.1456 2108.4469 0.0000 0.0000 1033.2418 -10087.4568 174.7147 -11120.6986 -10085.5591 174.7147 -259.8014 -188.7755 29293.6347 -259.8014 -188.7755
ENERGY: 700000 0.0000 0.0000 0.0000 0.0000 -12484.1341 1824.4242 0.0000 0.0000 1264.3480 -9395.3619 213.7933 -10659.7099 -9394.7419 210.2405 -817.0900 -700.8457 29260.7423 3.2034 3.2686
TCL: Running 100000 steps at 240 kelvin.
TCL: Setting parameter langevinTemp to 240
TCL: Running for 100000 steps
ETITLE: TS BOND ANGLE DIHED IMPRP ELECT VDW BOUNDARY MISC KINETIC TOTAL TEMP POTENTIAL TOTAL3 TEMPAVG PRESSURE GPRESSURE VOLUME PRESSAVG GPRESSAVG
ENERGY: 700000 0.0000 0.0000 0.0000 0.0000 -12484.1341 1824.4242 0.0000 0.0000 1263.7186 -9395.9912 213.6869 -10659.7099 -9393.8338 213.6869 -772.1187 -702.2651 29260.7423 -772.1187 -702.2651
ENERGY: 800000 0.0000 0.0000 0.0000 0.0000 -12032.8202 1742.3871 0.0000 0.0000 1397.7529 -8892.6802 236.3512 -10290.4331 -8891.5573 240.1332 25.2992 125.1692 29262.8090 4.1929 4.1044
TCL: Running 100000 steps at 270 kelvin.
TCL: Setting parameter langevinTemp to 270
TCL: Running for 100000 steps
ETITLE: TS BOND ANGLE DIHED IMPRP ELECT VDW BOUNDARY MISC KINETIC TOTAL TEMP POTENTIAL TOTAL3 TEMPAVG PRESSURE GPRESSURE VOLUME PRESSAVG GPRESSAVG
ENERGY: 800000 0.0000 0.0000 0.0000 0.0000 -12032.8202 1742.3871 0.0000 0.0000 1397.0642 -8893.3689 236.2348 -10290.4331 -8890.6749 236.2348 33.7854 123.1233 29262.8090 33.7854 123.1233
ENERGY: 900000 0.0000 0.0000 0.0000 0.0000 -11356.7354 1551.2492 0.0000 0.0000 1555.5619 -8249.9243 263.0357 -9805.4862 -8248.5906 269.9007 -396.8813 -282.9099 30175.4042 3.7751 3.8918
TCL: Running 1000000 steps at 300 kelvin.
TCL: Setting parameter langevinTemp to 300
TCL: Running for 1000000 steps
ETITLE: TS BOND ANGLE DIHED IMPRP ELECT VDW BOUNDARY MISC KINETIC TOTAL TEMP POTENTIAL TOTAL3 TEMPAVG PRESSURE GPRESSURE VOLUME PRESSAVG GPRESSAVG
ENERGY: 900000 0.0000 0.0000 0.0000 0.0000 -11356.7354 1551.2492 0.0000 0.0000 1554.7864 -8250.6998 262.9046 -9805.4862 -8247.8350 262.9046 -373.3407 -284.4551 30175.4042 -373.3407 -284.4551
ENERGY: 1100000 0.0000 0.0000 0.0000 0.0000 -10973.7783 1519.6385 0.0000 0.0000 1788.7084 -7665.4314 302.4593 -9454.1398 -7659.7666 300.4769 440.9395 473.2947 30873.2945 2.7449 2.7927
ENERGY: 1300000 0.0000 0.0000 0.0000 0.0000 -10791.2396 1423.4135 0.0000 0.0000 1769.0571 -7598.7690 299.1364 -9367.8261 -7592.1601 299.9609 -67.1957 58.5277 30739.6288 2.7637 2.8171
ENERGY: 1500000 0.0000 0.0000 0.0000 0.0000 -10725.7035 1390.2952 0.0000 0.0000 1777.6110 -7557.7974 300.5828 -9335.4084 -7552.7794 299.9725 -154.5542 -89.5137 30641.1352 3.6982 3.6035
ENERGY: 1700000 0.0000 0.0000 0.0000 0.0000 -10854.3141 1423.1359 0.0000 0.0000 1739.1176 -7692.0607 294.0739 -9431.1783 -7690.9305 299.7681 -336.0678 -278.1805 30666.4175 2.8271 3.0588
ENERGY: 1900000 0.0000 0.0000 0.0000 0.0000 -10931.0521 1510.2056 0.0000 0.0000 1784.1549 -7636.6917 301.6894 -9420.8465 -7633.7265 299.9731 357.4388 452.4287 30764.3224 3.2527 3.4345
TCL: Exiting due to exit command.
