Info: SIMULATION PARAMETERS:
Info: TIMESTEP               2
Info: NUMBER OF STEPS        0
Info: STEPS PER CYCLE        10
Info: PERIODIC CELL BASIS 1  37.399 0 0
Info: PERIODIC CELL BASIS 2  0 35.847 0
Info: PERIODIC CELL BASIS 3  0 0 31.855
Info: PERIODIC CELL CENTER   0 0 0
Info: WRAPPING WATERS AROUND PERIODIC BOUNDARIES ON OUTPUT.
Info: WRAPPING ALL CLUSTERS AROUND PERIODIC BOUNDARIES ON OUTPUT.
Info: FIRST LDB TIMESTEP     50
Info: LAST LDB TIMESTEP     -1
Info: HOM BACKGROUND SCALING 1
Info: PME BACKGROUND SCALING 1
Info: MIN ATOMS PER PATCH    40
Info: EMPTY PATCH LOAD       40 ATOMS
Info: INITIAL TEMPERATURE    300
Info: CENTER OF MASS MOVING INITIALLY? NO
Info: DIELECTRIC             1
Info: EXCLUDE                SCALED ONE-FOUR
Info: 1-4 ELECTROSTATICS SCALED BY 0.833333
Info: MODIFIED 1-4 VDW PARAMETERS WILL BE USED
Info: DCD FILENAME           mobley_3727287_equil.dcd
Info: DCD FREQUENCY          100000
Info: DCD FIRST STEP         100000
Info: DCD FILE WILL CONTAIN UNIT CELL DATA
Info: XST FILENAME           mobley_3727287_equil.xst
Info: XST FREQUENCY          100000
Info: NO VELOCITY DCD OUTPUT
Info: NO FORCE DCD OUTPUT
Info: OUTPUT FILENAME        mobley_3727287_equil
Info: BINARY OUTPUT FILES WILL BE USED
Info: RESTART FILENAME       mobley_3727287_equil.restart
Info: RESTART FREQUENCY      100000
Info: BINARY RESTART FILES WILL BE USED
Info: CUTOFF                 9
Info: PAIRLIST DISTANCE      11
Info: PAIRLIST SHRINK RATE   0.01
Info: PAIRLIST GROW RATE     0.01
Info: PAIRLIST TRIGGER       0.3
Info: PAIRLISTS PER CYCLE    2
Info: PAIRLISTS ENABLED
Info: MARGIN                 8
Info: HYDROGEN GROUP CUTOFF  2.5
Info: PATCH DIMENSION        21.5
Info: ENERGY OUTPUT STEPS    100000
Info: ENERGY EVALUATION STEPS    100000
Info: OUTPUT ENERGY PRECISION 4
Info: CROSSTERM ENERGY INCLUDED IN DIHEDRAL
Info: TIMING OUTPUT STEPS    1000000
Info: PRESSURE OUTPUT STEPS  100000
Info: FIXED ATOMS ACTIVE
Info: LANGEVIN DYNAMICS ACTIVE
Info: LANGEVIN TEMPERATURE   30
Info: LANGEVIN USING BBK INTEGRATOR
Info: LANGEVIN DAMPING COEFFICIENT IS 1 INVERSE PS
Info: LANGEVIN DYNAMICS APPLIED TO HYDROGENS
Info: LANGEVIN PISTON PRESSURE CONTROL ACTIVE
Info:        TARGET PRESSURE IS 1.01325 BAR
Info:     OSCILLATION PERIOD IS 50 FS
Info:             DECAY TIME IS 25 FS
Info:     PISTON TEMPERATURE IS 300 K
Info:       PRESSURE CONTROL IS GROUP-BASED
Info:    INITIAL STRAIN RATE IS 0 0 0
Info:       CELL FLUCTUATION IS ISOTROPIC
Info: PARTICLE MESH EWALD (PME) ACTIVE
Info: PME TOLERANCE               1e-06
Info: PME EWALD COEFFICIENT       0.348832
Info: PME INTERPOLATION ORDER     4
Info: PME GRID DIMENSIONS         40 36 32
Info: PME MAXIMUM GRID SPACING    1
Info: FULL ELECTROSTATIC EVALUATION FREQUENCY      2
Info: USING VERLET I (r-RESPA) MTS SCHEME.
Info: C1 SPLITTING OF LONG RANGE ELECTROSTATICS
Info: PLACING ATOMS IN PATCHES BY HYDROGEN GROUPS
Info: RIGID BONDS TO HYDROGEN : ALL
Info:         ERROR TOLERANCE : 1e-08
Info:          MAX ITERATIONS : 100
Info: RIGID WATER USING SETTLE ALGORITHM
Info: RANDOM NUMBER SEED     1743720180
Info: USE HYDROGEN BONDS?    NO
Info: Using AMBER format force field!
Info: AMBER PARM FILE        mobley_3727287.prmtop
Info: COORDINATE PDB         mobley_3727287.pdb
Info: Exclusions will be read from PARM file!
Info: SCNB (VDW SCALING)     2
Info: USING ARITHMETIC MEAN TO COMBINE L-J SIGMA PARAMETERS
Info: BINARY COORDINATES     mobley_3727287_min.coor
Info: SUMMARY OF PARAMETERS:
Info: 8 BONDS
Info: 9 ANGLES
Info:   9 HARMONIC
Info:   0 COSINE-BASED
Info: 4 DIHEDRAL
Info: 0 IMPROPER
Info: 0 CROSSTERM
Info: 0 VDW
Info: 15 VDW_PAIRS
Info: 0 NBTHOLE_PAIRS
Info: STRUCTURE SUMMARY:
Info: 2931 ATOMS
Info: 2931 BONDS
Info: 18 ANGLES
Info: 30 DIHEDRALS
Info: 0 IMPROPERS
Info: 0 CROSSTERMS
Info: 2970 EXCLUSIONS
Info: 12 FIXED ATOMS
Info: 2923 RIGID BONDS
Info: 4 RIGID BONDS BETWEEN FIXED ATOMS
Info: 5838 DEGREES OF FREEDOM
Info: 981 HYDROGEN GROUPS
Info: 3 ATOMS IN LARGEST HYDROGEN GROUP
Info: 981 MIGRATION GROUPS
Info: 3 ATOMS IN LARGEST MIGRATION GROUP
Info: 8 HYDROGEN GROUPS WITH ALL ATOMS FIXED
Info: TOTAL MASS = 17637.7 amu
Info: TOTAL CHARGE = 0 e
Info: MASS DENSITY = 0.685819 g/cm^3
Info: ATOM DENSITY = 0.0686318 atoms/A^3
Info: ADDED 0 IMPLICIT EXCLUSIONS
Info: NONBONDED TABLE R-SQUARED SPACING: 0.0625
Info: NONBONDED TABLE SIZE: 705 POINTS
Info: REMOVING COM VELOCITY 0.0278383 -0.0144181 0.0722912
TCL: Running for 100000 steps
ETITLE: TS BOND ANGLE DIHED IMPRP ELECT VDW BOUNDARY MISC KINETIC TOTAL TEMP POTENTIAL TOTAL3 TEMPAVG PRESSURE GPRESSURE VOLUME PRESSAVG GPRESSAVG
ENERGY: 0 0.0000 0.0000 0.0000 0.0000 -13607.0017 2326.2411 0.0000 0.0000 1704.6987 -9576.0619 293.8826 -11280.7606 -9575.7554 293.8826 92.0361 132.3022 42706.1494 92.0361 132.3022
ENERGY: 100000 0.0000 0.0000 0.0000 0.0000 -14288.9163 2524.7699 0.0000 0.0000 175.6119 -11588.5345 30.2747 -11764.1465 -11588.0895 30.8931 461.6916 511.9937 28509.8310 3.8509 3.8319
TCL: Running 100000 steps at 60 kelvin.
TCL: Setting parameter langevinTemp to 60
TCL: Running for 100000 steps
ETITLE: TS BOND ANGLE DIHED IMPRP ELECT VDW BOUNDARY MISC KINETIC TOTAL TEMP POTENTIAL TOTAL3 TEMPAVG PRESSURE GPRESSURE VOLUME PRESSAVG GPRESSAVG
ENERGY: 100000 0.0000 0.0000 0.0000 0.0000 -14288.9163 2524.7699 0.0000 0.0000 175.5288 -11588.6176 30.2604 -11764.1465 -11588.2806 30.2604 469.9608 512.2279 28509.8310 469.9608 512.2279
ENERGY: 200000 0.0000 0.0000 0.0000 0.0000 -14099.5622 2405.7366 0.0000 0.0000 340.0290 -11353.7966 58.6195 -11693.8256 -11353.0407 60.0080 -299.1590 -241.5460 28808.9646 4.1351 4.2270
TCL: Running 100000 steps at 90 kelvin.
TCL: Setting parameter langevinTemp to 90
TCL: Running for 100000 steps
ETITLE: TS BOND ANGLE DIHED IMPRP ELECT VDW BOUNDARY MISC KINETIC TOTAL TEMP POTENTIAL TOTAL3 TEMPAVG PRESSURE GPRESSURE VOLUME PRESSAVG GPRESSAVG
ENERGY: 200000 0.0000 0.0000 0.0000 0.0000 -14099.5622 2405.7366 0.0000 0.0000 339.8556 -11353.9700 58.5896 -11693.8256 -11353.1009 58.5896 -297.1362 -241.5088 28808.9646 -297.1362 -241.5088
ENERGY: 300000 0.0000 0.0000 0.0000 0.0000 -13927.2061 2363.4103 0.0000 0.0000 522.9517 -11040.8441 90.1546 -11563.7958 -11039.4599 89.8365 -71.6933 -13.4638 28670.6044 3.8031 3.7937
TCL: Running 100000 steps at 120 kelvin.
TCL: Setting parameter langevinTemp to 120
TCL: Running for 100000 steps
ETITLE: TS BOND ANGLE DIHED IMPRP ELECT VDW BOUNDARY MISC KINETIC TOTAL TEMP POTENTIAL TOTAL3 TEMPAVG PRESSURE GPRESSURE VOLUME PRESSAVG GPRESSAVG
ENERGY: 300000 0.0000 0.0000 0.0000 0.0000 -13927.2061 2363.4103 0.0000 0.0000 522.6896 -11041.1061 90.1094 -11563.7958 -11040.1514 90.1094 -73.9718 -13.7345 28670.6044 -73.9718 -13.7345
ENERGY: 400000 0.0000 0.0000 0.0000 0.0000 -13686.9316 2227.4479 0.0000 0.0000 715.0447 -10744.4390 123.2706 -11459.4837 -10741.9667 120.0547 -808.3255 -716.5314 28817.1014 3.2017 3.0920
TCL: Running 100000 steps at 150 kelvin.
TCL: Setting parameter langevinTemp to 150
TCL: Running for 100000 steps
ETITLE: TS BOND ANGLE DIHED IMPRP ELECT VDW BOUNDARY MISC KINETIC TOTAL TEMP POTENTIAL TOTAL3 TEMPAVG PRESSURE GPRESSURE VOLUME PRESSAVG GPRESSAVG
ENERGY: 400000 0.0000 0.0000 0.0000 0.0000 -13686.9316 2227.4479 0.0000 0.0000 714.6844 -10744.7993 123.2085 -11459.4837 -10743.3914 123.2085 -765.0887 -714.9140 28817.1014 -765.0887 -714.9140
ENERGY: 500000 0.0000 0.0000 0.0000 0.0000 -13512.7667 2220.1938 0.0000 0.0000 871.3214 -10421.2515 150.2120 -11292.5729 -10418.7001 149.9097 -347.1612 -245.0568 28766.2688 3.6018 3.6061
TCL: Running 100000 steps at 180 kelvin.
TCL: Setting parameter langevinTemp to 180
TCL: Running for 100000 steps
ETITLE: TS BOND ANGLE DIHED IMPRP ELECT VDW BOUNDARY MISC KINETIC TOTAL TEMP POTENTIAL TOTAL3 TEMPAVG PRESSURE GPRESSURE VOLUME PRESSAVG GPRESSAVG
ENERGY: 500000 0.0000 0.0000 0.0000 0.0000 -13512.7667 2220.1938 0.0000 0.0000 870.9086 -10421.6643 150.1409 -11292.5729 -10420.1839 150.1409 -302.8041 -245.7259 28766.2688 -302.8041 -245.7259
ENERGY: 600000 0.0000 0.0000 0.0000 0.0000 -13040.5054 2049.5252 0.0000 0.0000 1046.8729 -9944.1073 180.4763 -10990.9802 -9941.9813 179.6650 -296.1341 -194.2176 28393.2741 4.3039 4.2733
TCL: Running 100000 steps at 210 kelvin.
TCL: Setting parameter langevinTemp to 210
TCL: Running for 100000 steps
ETITLE: TS BOND ANGLE DIHED IMPRP ELECT VDW BOUNDARY MISC KINETIC TOTAL TEMP POTENTIAL TOTAL3 TEMPAVG PRESSURE GPRESSURE VOLUME PRESSAVG GPRESSAVG
ENERGY: 600000 0.0000 0.0000 0.0000 0.0000 -13040.5054 2049.5252 0.0000 0.0000 1046.3601 -9944.6201 180.3879 -10990.9802 -9942.3189 180.3879 -250.7160 -195.1120 28393.2741 -250.7160 -195.1120
ENERGY: 700000 0.0000 0.0000 0.0000 0.0000 -12533.5265 1946.6036 0.0000 0.0000 1209.3917 -9377.5312 208.4939 -10586.9229 -9374.3195 210.0374 255.0376 324.3764 28717.8491 3.6549 3.5498
TCL: Running 100000 steps at 240 kelvin.
TCL: Setting parameter langevinTemp to 240
TCL: Running for 100000 steps
ETITLE: TS BOND ANGLE DIHED IMPRP ELECT VDW BOUNDARY MISC KINETIC TOTAL TEMP POTENTIAL TOTAL3 TEMPAVG PRESSURE GPRESSURE VOLUME PRESSAVG GPRESSAVG
ENERGY: 700000 0.0000 0.0000 0.0000 0.0000 -12533.5265 1946.6036 0.0000 0.0000 1208.7736 -9378.1493 208.3873 -10586.9229 -9375.9316 208.3873 259.9760 324.4072 28717.8491 259.9760 324.4072
ENERGY: 800000 0.0000 0.0000 0.0000 0.0000 -11802.4327 1664.4762 0.0000 0.0000 1414.0884 -8723.8680 243.7827 -10137.9564 -8720.8130 240.3713 -385.3411 -296.5160 28904.6639 2.9710 3.0087
TCL: Running 100000 steps at 270 kelvin.
TCL: Setting parameter langevinTemp to 270
TCL: Running for 100000 steps
ETITLE: TS BOND ANGLE DIHED IMPRP ELECT VDW BOUNDARY MISC KINETIC TOTAL TEMP POTENTIAL TOTAL3 TEMPAVG PRESSURE GPRESSURE VOLUME PRESSAVG GPRESSAVG
ENERGY: 800000 0.0000 0.0000 0.0000 0.0000 -11802.4327 1664.4762 0.0000 0.0000 1413.4208 -8724.5357 243.6676 -10137.9564 -8722.0076 243.6676 -365.8534 -295.2259 28904.6639 -365.8534 -295.2259
ENERGY: 900000 0.0000 0.0000 0.0000 0.0000 -11325.5023 1566.9616 0.0000 0.0000 1545.0071 -8213.5335 266.3525 -9758.5407 -8207.8533 270.0749 104.9603 186.0839 28873.0686 3.3851 3.4964
TCL: Running 1000000 steps at 300 kelvin.
TCL: Setting parameter langevinTemp to 300
TCL: Running for 1000000 steps
ETITLE: TS BOND ANGLE DIHED IMPRP ELECT VDW BOUNDARY MISC KINETIC TOTAL TEMP POTENTIAL TOTAL3 TEMPAVG PRESSURE GPRESSURE VOLUME PRESSAVG GPRESSAVG
ENERGY: 900000 0.0000 0.0000 0.0000 0.0000 -11325.5023 1566.9616 0.0000 0.0000 1544.2530 -8214.2877 266.2225 -9758.5407 -8211.9709 266.2225 87.8502 187.6789 28873.0686 87.8502 187.6789
ENERGY: 1100000 0.0000 0.0000 0.0000 0.0000 -10658.4681 1363.9182 0.0000 0.0000 1762.6561 -7531.8939 303.8742 -9294.5500 -7526.3602 300.3256 -694.1921 -601.6600 30663.3570 3.2203 3.1901
ENERGY: 1300000 0.0000 0.0000 0.0000 0.0000 -10606.9146 1369.9550 0.0000 0.0000 1700.8328 -7536.1268 293.2162 -9236.9596 -7532.4024 300.1439 -435.4416 -321.9623 30336.4367 2.6777 2.7808
ENERGY: 1500000 0.0000 0.0000 0.0000 0.0000 -10722.0543 1424.0723 0.0000 0.0000 1694.8250 -7603.1570 292.1804 -9297.9820 -7599.6453 300.3743 -109.9751 36.2619 29937.9348 3.0555 3.0110
ENERGY: 1700000 0.0000 0.0000 0.0000 0.0000 -10761.8557 1441.6954 0.0000 0.0000 1753.7911 -7566.3692 302.3459 -9320.1602 -7565.7092 299.9349 163.9856 217.2953 29991.9748 3.1233 3.1774
ENERGY: 1900000 0.0000 0.0000 0.0000 0.0000 -10863.0838 1502.4908 0.0000 0.0000 1731.8619 -7628.7311 298.5654 -9360.5930 -7627.2595 300.3775 264.0647 357.6649 30303.7552 3.2900 3.1560
TCL: Exiting due to exit command.
