Info: SIMULATION PARAMETERS:
Info: TIMESTEP               2
Info: NUMBER OF STEPS        0
Info: STEPS PER CYCLE        10
Info: PERIODIC CELL BASIS 1  36.592 0 0
Info: PERIODIC CELL BASIS 2  0 35.411 0
Info: PERIODIC CELL BASIS 3  0 0 34.229
Info: PERIODIC CELL CENTER   0 0 0
Info: WRAPPING WATERS AROUND PERIODIC BOUNDARIES ON OUTPUT.
Info: WRAPPING ALL CLUSTERS AROUND PERIODIC BOUNDARIES ON OUTPUT.
Info: FIRST LDB TIMESTEP     50
Info: LAST LDB TIMESTEP     -1
Info: HOM BACKGROUND SCALING 1
Info: PME BACKGROUND SCALING 1
Info: MIN ATOMS PER PATCH    40
Info: EMPTY PATCH LOAD       40 ATOMS
Info: INITIAL TEMPERATURE    300
Info: CENTER OF MASS MOVING INITIALLY? NO
Info: DIELECTRIC             1
Info: EXCLUDE                SCALED ONE-FOUR
Info: 1-4 ELECTROSTATICS SCALED BY 0.833333
Info: MODIFIED 1-4 VDW PARAMETERS WILL BE USED
Info: DCD FILENAME           mobley_5852491_equil.dcd
Info: DCD FREQUENCY          100000
Info: DCD FIRST STEP         100000
Info: DCD FILE WILL CONTAIN UNIT CELL DATA
Info: XST FILENAME           mobley_5852491_equil.xst
Info: XST FREQUENCY          100000
Info: NO VELOCITY DCD OUTPUT
Info: NO FORCE DCD OUTPUT
Info: OUTPUT FILENAME        mobley_5852491_equil
Info: BINARY OUTPUT FILES WILL BE USED
Info: RESTART FILENAME       mobley_5852491_equil.restart
Info: RESTART FREQUENCY      100000
Info: BINARY RESTART FILES WILL BE USED
Info: CUTOFF                 9
Info: PAIRLIST DISTANCE      11
Info: PAIRLIST SHRINK RATE   0.01
Info: PAIRLIST GROW RATE     0.01
Info: PAIRLIST TRIGGER       0.3
Info: PAIRLISTS PER CYCLE    2
Info: PAIRLISTS ENABLED
Info: MARGIN                 8
Info: HYDROGEN GROUP CUTOFF  2.5
Info: PATCH DIMENSION        21.5
Info: ENERGY OUTPUT STEPS    100000
Info: ENERGY EVALUATION STEPS    100000
Info: OUTPUT ENERGY PRECISION 4
Info: CROSSTERM ENERGY INCLUDED IN DIHEDRAL
Info: TIMING OUTPUT STEPS    1000000
Info: PRESSURE OUTPUT STEPS  100000
Info: FIXED ATOMS ACTIVE
Info: LANGEVIN DYNAMICS ACTIVE
Info: LANGEVIN TEMPERATURE   30
Info: LANGEVIN USING BBK INTEGRATOR
Info: LANGEVIN DAMPING COEFFICIENT IS 1 INVERSE PS
Info: LANGEVIN DYNAMICS APPLIED TO HYDROGENS
Info: LANGEVIN PISTON PRESSURE CONTROL ACTIVE
Info:        TARGET PRESSURE IS 1.01325 BAR
Info:     OSCILLATION PERIOD IS 50 FS
Info:             DECAY TIME IS 25 FS
Info:     PISTON TEMPERATURE IS 300 K
Info:       PRESSURE CONTROL IS GROUP-BASED
Info:    INITIAL STRAIN RATE IS 0 0 0
Info:       CELL FLUCTUATION IS ISOTROPIC
Info: PARTICLE MESH EWALD (PME) ACTIVE
Info: PME TOLERANCE               1e-06
Info: PME EWALD COEFFICIENT       0.348832
Info: PME INTERPOLATION ORDER     4
Info: PME GRID DIMENSIONS         40 36 36
Info: PME MAXIMUM GRID SPACING    1
Info: FULL ELECTROSTATIC EVALUATION FREQUENCY      2
Info: USING VERLET I (r-RESPA) MTS SCHEME.
Info: C1 SPLITTING OF LONG RANGE ELECTROSTATICS
Info: PLACING ATOMS IN PATCHES BY HYDROGEN GROUPS
Info: RIGID BONDS TO HYDROGEN : ALL
Info:         ERROR TOLERANCE : 1e-08
Info:          MAX ITERATIONS : 100
Info: RIGID WATER USING SETTLE ALGORITHM
Info: RANDOM NUMBER SEED     1744676673
Info: USE HYDROGEN BONDS?    NO
Info: Using AMBER format force field!
Info: AMBER PARM FILE        mobley_5852491.prmtop
Info: COORDINATE PDB         mobley_5852491.pdb
Info: Exclusions will be read from PARM file!
Info: SCNB (VDW SCALING)     2
Info: USING ARITHMETIC MEAN TO COMBINE L-J SIGMA PARAMETERS
Info: BINARY COORDINATES     mobley_5852491_min.coor
Info: SUMMARY OF PARAMETERS:
Info: 4 BONDS
Info: 3 ANGLES
Info:   3 HARMONIC
Info:   0 COSINE-BASED
Info: 5 DIHEDRAL
Info: 0 IMPROPER
Info: 0 CROSSTERM
Info: 0 VDW
Info: 10 VDW_PAIRS
Info: 0 NBTHOLE_PAIRS
Info: STRUCTURE SUMMARY:
Info: 2937 ATOMS
Info: 2937 BONDS
Info: 36 ANGLES
Info: 68 DIHEDRALS
Info: 0 IMPROPERS
Info: 0 CROSSTERMS
Info: 3022 EXCLUSIONS
Info: 18 FIXED ATOMS
Info: 2931 RIGID BONDS
Info: 12 RIGID BONDS BETWEEN FIXED ATOMS
Info: 5838 DEGREES OF FREEDOM
Info: 979 HYDROGEN GROUPS
Info: 4 ATOMS IN LARGEST HYDROGEN GROUP
Info: 979 MIGRATION GROUPS
Info: 4 ATOMS IN LARGEST MIGRATION GROUP
Info: 6 HYDROGEN GROUPS WITH ALL ATOMS FIXED
Info: TOTAL MASS = 17613.7 amu
Info: TOTAL CHARGE = 0.000100002 e
Info: MASS DENSITY = 0.659465 g/cm^3
Info: ATOM DENSITY = 0.0662194 atoms/A^3
Info: ADDED 0 IMPLICIT EXCLUSIONS
Info: NONBONDED TABLE R-SQUARED SPACING: 0.0625
Info: NONBONDED TABLE SIZE: 705 POINTS
Info: REMOVING COM VELOCITY 0.0233547 0.0450551 0.0360712
TCL: Running for 100000 steps
ETITLE: TS BOND ANGLE DIHED IMPRP ELECT VDW BOUNDARY MISC KINETIC TOTAL TEMP POTENTIAL TOTAL3 TEMPAVG PRESSURE GPRESSURE VOLUME PRESSAVG GPRESSAVG
ENERGY: 0 0.0000 0.0000 0.0000 0.0000 -13587.8617 2412.6480 0.0000 0.0000 1725.7991 -9449.4146 297.5203 -11175.2137 -9449.0912 297.5203 616.1325 650.5771 44352.5455 616.1325 650.5771
ENERGY: 100000 0.0000 0.0000 0.0000 0.0000 -14189.5086 2516.3355 0.0000 0.0000 170.5561 -11502.6170 29.4031 -11673.1731 -11502.2429 30.8245 342.1200 400.9878 28909.1415 3.2624 3.2576
TCL: Running 100000 steps at 60 kelvin.
TCL: Setting parameter langevinTemp to 60
TCL: Running for 100000 steps
ETITLE: TS BOND ANGLE DIHED IMPRP ELECT VDW BOUNDARY MISC KINETIC TOTAL TEMP POTENTIAL TOTAL3 TEMPAVG PRESSURE GPRESSURE VOLUME PRESSAVG GPRESSAVG
ENERGY: 100000 0.0000 0.0000 0.0000 0.0000 -14189.5086 2516.3355 0.0000 0.0000 170.4695 -11502.7036 29.3882 -11673.1731 -11502.3970 29.3882 347.1861 400.9542 28909.1415 347.1861 400.9542
ENERGY: 200000 0.0000 0.0000 0.0000 0.0000 -14110.8125 2497.2261 0.0000 0.0000 349.5381 -11264.0483 60.2588 -11613.5864 -11262.8584 59.9823 725.3854 760.4189 28428.7263 2.1031 2.1839
TCL: Running 100000 steps at 90 kelvin.
TCL: Setting parameter langevinTemp to 90
TCL: Running for 100000 steps
ETITLE: TS BOND ANGLE DIHED IMPRP ELECT VDW BOUNDARY MISC KINETIC TOTAL TEMP POTENTIAL TOTAL3 TEMPAVG PRESSURE GPRESSURE VOLUME PRESSAVG GPRESSAVG
ENERGY: 200000 0.0000 0.0000 0.0000 0.0000 -14110.8125 2497.2261 0.0000 0.0000 349.3651 -11264.2213 60.2290 -11613.5864 -11263.5658 60.2290 703.9626 760.9381 28428.7263 703.9626 760.9381
ENERGY: 300000 0.0000 0.0000 0.0000 0.0000 -13753.0258 2250.2952 0.0000 0.0000 534.2152 -10968.5155 92.0964 -11502.7307 -10966.5260 89.6795 -975.9057 -916.2949 28781.7333 3.7413 3.6857
TCL: Running 100000 steps at 120 kelvin.
TCL: Setting parameter langevinTemp to 120
TCL: Running for 100000 steps
ETITLE: TS BOND ANGLE DIHED IMPRP ELECT VDW BOUNDARY MISC KINETIC TOTAL TEMP POTENTIAL TOTAL3 TEMPAVG PRESSURE GPRESSURE VOLUME PRESSAVG GPRESSAVG
ENERGY: 300000 0.0000 0.0000 0.0000 0.0000 -13753.0258 2250.2952 0.0000 0.0000 533.9518 -10968.7788 92.0510 -11502.7307 -10967.5058 92.0510 -970.9171 -915.7525 28781.7333 -970.9171 -915.7525
ENERGY: 400000 0.0000 0.0000 0.0000 0.0000 -13764.5845 2399.8584 0.0000 0.0000 707.1078 -10657.6183 121.9023 -11364.7261 -10655.6296 119.9129 1033.7750 1063.5145 28379.8464 4.1404 4.1466
TCL: Running 100000 steps at 150 kelvin.
TCL: Setting parameter langevinTemp to 150
TCL: Running for 100000 steps
ETITLE: TS BOND ANGLE DIHED IMPRP ELECT VDW BOUNDARY MISC KINETIC TOTAL TEMP POTENTIAL TOTAL3 TEMPAVG PRESSURE GPRESSURE VOLUME PRESSAVG GPRESSAVG
ENERGY: 400000 0.0000 0.0000 0.0000 0.0000 -13764.5845 2399.8584 0.0000 0.0000 706.7447 -10657.9814 121.8397 -11364.7261 -10656.6503 121.8397 1019.3825 1064.1462 28379.8464 1019.3825 1064.1462
ENERGY: 500000 0.0000 0.0000 0.0000 0.0000 -13328.4248 2128.5475 0.0000 0.0000 905.0273 -10294.8501 156.0228 -11199.8773 -10292.4581 149.9647 -965.5874 -907.3448 29245.8477 3.0935 3.1075
TCL: Running 100000 steps at 180 kelvin.
TCL: Setting parameter langevinTemp to 180
TCL: Running for 100000 steps
ETITLE: TS BOND ANGLE DIHED IMPRP ELECT VDW BOUNDARY MISC KINETIC TOTAL TEMP POTENTIAL TOTAL3 TEMPAVG PRESSURE GPRESSURE VOLUME PRESSAVG GPRESSAVG
ENERGY: 500000 0.0000 0.0000 0.0000 0.0000 -13328.4248 2128.5475 0.0000 0.0000 904.5973 -10295.2800 155.9486 -11199.8773 -10293.2961 155.9486 -956.1143 -907.0247 29245.8477 -956.1143 -907.0247
ENERGY: 600000 0.0000 0.0000 0.0000 0.0000 -12983.0345 2071.2283 0.0000 0.0000 1052.9296 -9858.8766 181.5205 -10911.8062 -9855.8231 179.5845 -183.8321 -170.1135 28769.0128 3.6524 3.4585
TCL: Running 100000 steps at 210 kelvin.
TCL: Setting parameter langevinTemp to 210
TCL: Running for 100000 steps
ETITLE: TS BOND ANGLE DIHED IMPRP ELECT VDW BOUNDARY MISC KINETIC TOTAL TEMP POTENTIAL TOTAL3 TEMPAVG PRESSURE GPRESSURE VOLUME PRESSAVG GPRESSAVG
ENERGY: 600000 0.0000 0.0000 0.0000 0.0000 -12983.0345 2071.2283 0.0000 0.0000 1052.4083 -9859.3979 181.4306 -10911.8062 -9857.5036 181.4306 -225.1521 -169.6108 28769.0128 -225.1521 -169.6108
ENERGY: 700000 0.0000 0.0000 0.0000 0.0000 -12260.1660 1824.9372 0.0000 0.0000 1183.7434 -9251.4854 204.0722 -10435.2288 -9248.5093 210.2194 -581.5468 -485.7365 28764.5291 4.1242 4.1421
TCL: Running 100000 steps at 240 kelvin.
TCL: Setting parameter langevinTemp to 240
TCL: Running for 100000 steps
ETITLE: TS BOND ANGLE DIHED IMPRP ELECT VDW BOUNDARY MISC KINETIC TOTAL TEMP POTENTIAL TOTAL3 TEMPAVG PRESSURE GPRESSURE VOLUME PRESSAVG GPRESSAVG
ENERGY: 700000 0.0000 0.0000 0.0000 0.0000 -12260.1660 1824.9372 0.0000 0.0000 1183.1346 -9252.0942 203.9672 -10435.2288 -9249.4808 203.9672 -569.8419 -485.2648 28764.5291 -569.8419 -485.2648
ENERGY: 800000 0.0000 0.0000 0.0000 0.0000 -11655.3027 1667.9640 0.0000 0.0000 1364.6529 -8622.6857 235.2602 -9987.3387 -8619.7013 240.0796 -352.9009 -337.6410 29166.2833 2.7094 2.6063
TCL: Running 100000 steps at 270 kelvin.
TCL: Setting parameter langevinTemp to 270
TCL: Running for 100000 steps
ETITLE: TS BOND ANGLE DIHED IMPRP ELECT VDW BOUNDARY MISC KINETIC TOTAL TEMP POTENTIAL TOTAL3 TEMPAVG PRESSURE GPRESSURE VOLUME PRESSAVG GPRESSAVG
ENERGY: 800000 0.0000 0.0000 0.0000 0.0000 -11655.3027 1667.9640 0.0000 0.0000 1363.9718 -8623.3668 235.1428 -9987.3387 -8621.1084 235.1428 -407.9844 -336.6421 29166.2833 -407.9844 -336.6421
ENERGY: 900000 0.0000 0.0000 0.0000 0.0000 -11184.9088 1461.0933 0.0000 0.0000 1592.3448 -8131.4707 274.5133 -9723.8155 -8128.0080 269.5856 -901.0901 -818.7458 29097.7837 4.5033 4.7484
TCL: Running 1000000 steps at 300 kelvin.
TCL: Setting parameter langevinTemp to 300
TCL: Running for 1000000 steps
ETITLE: TS BOND ANGLE DIHED IMPRP ELECT VDW BOUNDARY MISC KINETIC TOTAL TEMP POTENTIAL TOTAL3 TEMPAVG PRESSURE GPRESSURE VOLUME PRESSAVG GPRESSAVG
ENERGY: 900000 0.0000 0.0000 0.0000 0.0000 -11184.9088 1461.0933 0.0000 0.0000 1591.6014 -8132.2142 274.3851 -9723.8155 -8129.6409 274.3851 -908.3980 -819.6114 29097.7837 -908.3980 -819.6114
ENERGY: 1100000 0.0000 0.0000 0.0000 0.0000 -10588.6338 1464.9368 0.0000 0.0000 1755.0999 -7368.5971 302.5716 -9123.6970 -7366.6663 300.3797 653.3744 744.4240 30119.3999 3.5608 3.5139
ENERGY: 1300000 0.0000 0.0000 0.0000 0.0000 -10716.2264 1411.1048 0.0000 0.0000 1758.8505 -7546.2711 303.2182 -9305.1216 -7543.7030 299.7324 -362.0665 -269.1125 30223.7670 2.4899 2.4130
ENERGY: 1500000 0.0000 0.0000 0.0000 0.0000 -10633.5451 1456.7606 0.0000 0.0000 1833.9944 -7342.7902 316.1726 -9176.7845 -7338.5363 300.0061 628.4315 670.1509 29994.4108 3.5923 3.6359
ENERGY: 1700000 0.0000 0.0000 0.0000 0.0000 -10606.3809 1432.7619 0.0000 0.0000 1699.3041 -7474.3150 292.9526 -9173.6191 -7469.8882 300.1107 -203.2676 -152.0333 30890.6595 3.2588 3.3138
ENERGY: 1900000 0.0000 0.0000 0.0000 0.0000 -10518.9596 1270.0065 0.0000 0.0000 1691.2061 -7557.7470 291.5566 -9248.9531 -7553.0432 299.4605 -1288.9608 -1194.4738 30113.3180 4.2713 4.1725
TCL: Exiting due to exit command.
