Info: SIMULATION PARAMETERS:
Info: TIMESTEP               2
Info: NUMBER OF STEPS        0
Info: STEPS PER CYCLE        10
Info: PERIODIC CELL BASIS 1  37.968 0 0
Info: PERIODIC CELL BASIS 2  0 35.411 0
Info: PERIODIC CELL BASIS 3  0 0 31.855
Info: PERIODIC CELL CENTER   0 0 0
Info: WRAPPING WATERS AROUND PERIODIC BOUNDARIES ON OUTPUT.
Info: WRAPPING ALL CLUSTERS AROUND PERIODIC BOUNDARIES ON OUTPUT.
Info: FIRST LDB TIMESTEP     50
Info: LAST LDB TIMESTEP     -1
Info: HOM BACKGROUND SCALING 1
Info: PME BACKGROUND SCALING 1
Info: MIN ATOMS PER PATCH    40
Info: EMPTY PATCH LOAD       40 ATOMS
Info: INITIAL TEMPERATURE    300
Info: CENTER OF MASS MOVING INITIALLY? NO
Info: DIELECTRIC             1
Info: EXCLUDE                SCALED ONE-FOUR
Info: 1-4 ELECTROSTATICS SCALED BY 0.833333
Info: MODIFIED 1-4 VDW PARAMETERS WILL BE USED
Info: DCD FILENAME           mobley_4494568_equil.dcd
Info: DCD FREQUENCY          100000
Info: DCD FIRST STEP         100000
Info: DCD FILE WILL CONTAIN UNIT CELL DATA
Info: XST FILENAME           mobley_4494568_equil.xst
Info: XST FREQUENCY          100000
Info: NO VELOCITY DCD OUTPUT
Info: NO FORCE DCD OUTPUT
Info: OUTPUT FILENAME        mobley_4494568_equil
Info: BINARY OUTPUT FILES WILL BE USED
Info: RESTART FILENAME       mobley_4494568_equil.restart
Info: RESTART FREQUENCY      100000
Info: BINARY RESTART FILES WILL BE USED
Info: CUTOFF                 9
Info: PAIRLIST DISTANCE      11
Info: PAIRLIST SHRINK RATE   0.01
Info: PAIRLIST GROW RATE     0.01
Info: PAIRLIST TRIGGER       0.3
Info: PAIRLISTS PER CYCLE    2
Info: PAIRLISTS ENABLED
Info: MARGIN                 8
Info: HYDROGEN GROUP CUTOFF  2.5
Info: PATCH DIMENSION        21.5
Info: ENERGY OUTPUT STEPS    100000
Info: ENERGY EVALUATION STEPS    100000
Info: OUTPUT ENERGY PRECISION 4
Info: CROSSTERM ENERGY INCLUDED IN DIHEDRAL
Info: TIMING OUTPUT STEPS    1000000
Info: PRESSURE OUTPUT STEPS  100000
Info: FIXED ATOMS ACTIVE
Info: LANGEVIN DYNAMICS ACTIVE
Info: LANGEVIN TEMPERATURE   30
Info: LANGEVIN USING BBK INTEGRATOR
Info: LANGEVIN DAMPING COEFFICIENT IS 1 INVERSE PS
Info: LANGEVIN DYNAMICS APPLIED TO HYDROGENS
Info: LANGEVIN PISTON PRESSURE CONTROL ACTIVE
Info:        TARGET PRESSURE IS 1.01325 BAR
Info:     OSCILLATION PERIOD IS 50 FS
Info:             DECAY TIME IS 25 FS
Info:     PISTON TEMPERATURE IS 300 K
Info:       PRESSURE CONTROL IS GROUP-BASED
Info:    INITIAL STRAIN RATE IS 0 0 0
Info:       CELL FLUCTUATION IS ISOTROPIC
Info: PARTICLE MESH EWALD (PME) ACTIVE
Info: PME TOLERANCE               1e-06
Info: PME EWALD COEFFICIENT       0.348832
Info: PME INTERPOLATION ORDER     4
Info: PME GRID DIMENSIONS         40 36 32
Info: PME MAXIMUM GRID SPACING    1
Info: FULL ELECTROSTATIC EVALUATION FREQUENCY      2
Info: USING VERLET I (r-RESPA) MTS SCHEME.
Info: C1 SPLITTING OF LONG RANGE ELECTROSTATICS
Info: PLACING ATOMS IN PATCHES BY HYDROGEN GROUPS
Info: RIGID BONDS TO HYDROGEN : ALL
Info:         ERROR TOLERANCE : 1e-08
Info:          MAX ITERATIONS : 100
Info: RIGID WATER USING SETTLE ALGORITHM
Info: RANDOM NUMBER SEED     1743738388
Info: USE HYDROGEN BONDS?    NO
Info: Using AMBER format force field!
Info: AMBER PARM FILE        mobley_4494568.prmtop
Info: COORDINATE PDB         mobley_4494568.pdb
Info: Exclusions will be read from PARM file!
Info: SCNB (VDW SCALING)     2
Info: USING ARITHMETIC MEAN TO COMBINE L-J SIGMA PARAMETERS
Info: BINARY COORDINATES     mobley_4494568_min.coor
Info: SUMMARY OF PARAMETERS:
Info: 7 BONDS
Info: 6 ANGLES
Info:   6 HARMONIC
Info:   0 COSINE-BASED
Info: 3 DIHEDRAL
Info: 0 IMPROPER
Info: 0 CROSSTERM
Info: 0 VDW
Info: 28 VDW_PAIRS
Info: 0 NBTHOLE_PAIRS
Info: STRUCTURE SUMMARY:
Info: 2940 ATOMS
Info: 2940 BONDS
Info: 24 ANGLES
Info: 36 DIHEDRALS
Info: 0 IMPROPERS
Info: 0 CROSSTERMS
Info: 2991 EXCLUSIONS
Info: 15 FIXED ATOMS
Info: 2932 RIGID BONDS
Info: 7 RIGID BONDS BETWEEN FIXED ATOMS
Info: 5850 DEGREES OF FREEDOM
Info: 983 HYDROGEN GROUPS
Info: 4 ATOMS IN LARGEST HYDROGEN GROUP
Info: 983 MIGRATION GROUPS
Info: 4 ATOMS IN LARGEST MIGRATION GROUP
Info: 8 HYDROGEN GROUPS WITH ALL ATOMS FIXED
Info: TOTAL MASS = 17736.6 amu
Info: TOTAL CHARGE = 0.000200011 e
Info: MASS DENSITY = 0.687696 g/cm^3
Info: ATOM DENSITY = 0.0686458 atoms/A^3
Info: ADDED 0 IMPLICIT EXCLUSIONS
Info: NONBONDED TABLE R-SQUARED SPACING: 0.0625
Info: NONBONDED TABLE SIZE: 705 POINTS
Info: REMOVING COM VELOCITY -0.0815223 0.0157429 0.00645038
TCL: Running for 100000 steps
ETITLE: TS BOND ANGLE DIHED IMPRP ELECT VDW BOUNDARY MISC KINETIC TOTAL TEMP POTENTIAL TOTAL3 TEMPAVG PRESSURE GPRESSURE VOLUME PRESSAVG GPRESSAVG
ENERGY: 0 0.0000 0.0000 0.0000 0.0000 -13628.9510 2380.8986 0.0000 0.0000 1725.1222 -9522.9302 296.7935 -11248.0524 -9522.6075 296.7935 297.1692 331.1377 42828.5648 297.1692 331.1377
ENERGY: 100000 0.0000 0.0000 0.0000 0.0000 -14049.1153 2372.0719 0.0000 0.0000 170.3304 -11506.7130 29.3040 -11677.0434 -11506.1231 30.9262 -792.3438 -735.8602 29554.4951 4.2460 4.2390
TCL: Running 100000 steps at 60 kelvin.
TCL: Setting parameter langevinTemp to 60
TCL: Running for 100000 steps
ETITLE: TS BOND ANGLE DIHED IMPRP ELECT VDW BOUNDARY MISC KINETIC TOTAL TEMP POTENTIAL TOTAL3 TEMPAVG PRESSURE GPRESSURE VOLUME PRESSAVG GPRESSAVG
ENERGY: 100000 0.0000 0.0000 0.0000 0.0000 -14049.1153 2372.0719 0.0000 0.0000 170.2410 -11506.8024 29.2886 -11677.0434 -11506.3460 29.2886 -778.1870 -735.8010 29554.4951 -778.1870 -735.8010
ENERGY: 200000 0.0000 0.0000 0.0000 0.0000 -14099.7478 2502.7726 0.0000 0.0000 350.3660 -11246.6092 60.2777 -11596.9752 -11246.1029 59.9812 696.7652 730.3859 29044.1389 4.2098 4.2665
TCL: Running 100000 steps at 90 kelvin.
TCL: Setting parameter langevinTemp to 90
TCL: Running for 100000 steps
ETITLE: TS BOND ANGLE DIHED IMPRP ELECT VDW BOUNDARY MISC KINETIC TOTAL TEMP POTENTIAL TOTAL3 TEMPAVG PRESSURE GPRESSURE VOLUME PRESSAVG GPRESSAVG
ENERGY: 200000 0.0000 0.0000 0.0000 0.0000 -14099.7478 2502.7726 0.0000 0.0000 350.1917 -11246.7835 60.2477 -11596.9752 -11246.0186 60.2477 682.1291 730.3070 29044.1389 682.1291 730.3070
ENERGY: 300000 0.0000 0.0000 0.0000 0.0000 -13798.2696 2306.6575 0.0000 0.0000 526.5527 -10965.0594 90.5892 -11491.6121 -10963.4884 89.9400 -564.5249 -536.4779 29387.6433 3.1342 3.1233
TCL: Running 100000 steps at 120 kelvin.
TCL: Setting parameter langevinTemp to 120
TCL: Running for 100000 steps
ETITLE: TS BOND ANGLE DIHED IMPRP ELECT VDW BOUNDARY MISC KINETIC TOTAL TEMP POTENTIAL TOTAL3 TEMPAVG PRESSURE GPRESSURE VOLUME PRESSAVG GPRESSAVG
ENERGY: 300000 0.0000 0.0000 0.0000 0.0000 -13798.2696 2306.6575 0.0000 0.0000 526.2934 -10965.3187 90.5446 -11491.6121 -10964.1360 90.5446 -587.9063 -536.0732 29387.6433 -587.9063 -536.0732
ENERGY: 400000 0.0000 0.0000 0.0000 0.0000 -13838.1842 2422.4144 0.0000 0.0000 699.7185 -10716.0513 120.3810 -11415.7698 -10714.9240 120.1170 900.1798 954.0852 28607.1345 4.7340 4.8053
TCL: Running 100000 steps at 150 kelvin.
TCL: Setting parameter langevinTemp to 150
TCL: Running for 100000 steps
ETITLE: TS BOND ANGLE DIHED IMPRP ELECT VDW BOUNDARY MISC KINETIC TOTAL TEMP POTENTIAL TOTAL3 TEMPAVG PRESSURE GPRESSURE VOLUME PRESSAVG GPRESSAVG
ENERGY: 400000 0.0000 0.0000 0.0000 0.0000 -13838.1842 2422.4144 0.0000 0.0000 699.3854 -10716.3845 120.3237 -11415.7698 -10715.4425 120.3237 905.1322 953.8621 28607.1345 905.1322 953.8621
ENERGY: 500000 0.0000 0.0000 0.0000 0.0000 -13386.9504 2151.9108 0.0000 0.0000 885.1028 -10349.9368 152.2749 -11235.0395 -10347.6158 150.0922 -697.7987 -649.0567 28796.2720 3.6095 3.5978
TCL: Running 100000 steps at 180 kelvin.
TCL: Setting parameter langevinTemp to 180
TCL: Running for 100000 steps
ETITLE: TS BOND ANGLE DIHED IMPRP ELECT VDW BOUNDARY MISC KINETIC TOTAL TEMP POTENTIAL TOTAL3 TEMPAVG PRESSURE GPRESSURE VOLUME PRESSAVG GPRESSAVG
ENERGY: 500000 0.0000 0.0000 0.0000 0.0000 -13386.9504 2151.9108 0.0000 0.0000 884.7000 -10350.3395 152.2056 -11235.0395 -10348.0656 152.2056 -720.7531 -649.7505 28796.2720 -720.7531 -649.7505
ENERGY: 600000 0.0000 0.0000 0.0000 0.0000 -13206.1433 2233.9475 0.0000 0.0000 1043.1239 -9929.0719 179.4611 -10972.1958 -9925.7724 179.8582 1028.3650 1083.4685 28712.9916 3.0469 2.8659
TCL: Running 100000 steps at 210 kelvin.
TCL: Setting parameter langevinTemp to 210
TCL: Running for 100000 steps
ETITLE: TS BOND ANGLE DIHED IMPRP ELECT VDW BOUNDARY MISC KINETIC TOTAL TEMP POTENTIAL TOTAL3 TEMPAVG PRESSURE GPRESSURE VOLUME PRESSAVG GPRESSAVG
ENERGY: 600000 0.0000 0.0000 0.0000 0.0000 -13206.1433 2233.9475 0.0000 0.0000 1042.6060 -9929.5898 179.3720 -10972.1958 -9927.5826 179.3720 1019.7244 1083.8032 28712.9916 1019.7244 1083.8032
ENERGY: 700000 0.0000 0.0000 0.0000 0.0000 -12400.4315 1919.2908 0.0000 0.0000 1228.9597 -9252.1810 211.4327 -10481.1407 -9250.0415 209.4525 347.2654 435.2750 28626.9123 3.6712 3.7427
TCL: Running 100000 steps at 240 kelvin.
TCL: Setting parameter langevinTemp to 240
TCL: Running for 100000 steps
ETITLE: TS BOND ANGLE DIHED IMPRP ELECT VDW BOUNDARY MISC KINETIC TOTAL TEMP POTENTIAL TOTAL3 TEMPAVG PRESSURE GPRESSURE VOLUME PRESSAVG GPRESSAVG
ENERGY: 700000 0.0000 0.0000 0.0000 0.0000 -12400.4315 1919.2908 0.0000 0.0000 1228.3527 -9252.7880 211.3283 -10481.1407 -9251.5373 211.3283 347.6245 436.1668 28626.9123 347.6245 436.1668
ENERGY: 800000 0.0000 0.0000 0.0000 0.0000 -11664.5388 1646.0011 0.0000 0.0000 1366.6896 -8651.8481 235.1280 -10018.5377 -8647.5481 239.2984 -666.4794 -580.4204 29446.9033 5.2975 5.1004
TCL: Running 100000 steps at 270 kelvin.
TCL: Setting parameter langevinTemp to 270
TCL: Running for 100000 steps
ETITLE: TS BOND ANGLE DIHED IMPRP ELECT VDW BOUNDARY MISC KINETIC TOTAL TEMP POTENTIAL TOTAL3 TEMPAVG PRESSURE GPRESSURE VOLUME PRESSAVG GPRESSAVG
ENERGY: 800000 0.0000 0.0000 0.0000 0.0000 -11664.5388 1646.0011 0.0000 0.0000 1365.9916 -8652.5461 235.0079 -10018.5377 -8650.4029 235.0079 -655.0482 -579.8879 29446.9033 -655.0482 -579.8879
ENERGY: 900000 0.0000 0.0000 0.0000 0.0000 -11171.0076 1585.8936 0.0000 0.0000 1497.3404 -8087.7737 257.6055 -9585.1141 -8085.7255 269.5883 362.2631 474.0682 29462.4442 4.0505 3.7783
TCL: Running 1000000 steps at 300 kelvin.
TCL: Setting parameter langevinTemp to 300
TCL: Running for 1000000 steps
ETITLE: TS BOND ANGLE DIHED IMPRP ELECT VDW BOUNDARY MISC KINETIC TOTAL TEMP POTENTIAL TOTAL3 TEMPAVG PRESSURE GPRESSURE VOLUME PRESSAVG GPRESSAVG
ENERGY: 900000 0.0000 0.0000 0.0000 0.0000 -11171.0076 1585.8936 0.0000 0.0000 1496.5365 -8088.5776 257.4671 -9585.1141 -8086.4067 257.4671 391.4870 474.0414 29462.4442 391.4870 474.0414
ENERGY: 1100000 0.0000 0.0000 0.0000 0.0000 -10697.9312 1492.3325 0.0000 0.0000 1725.7538 -7479.8449 296.9022 -9205.5987 -7477.1586 300.7977 505.9400 683.9037 30193.7958 2.3601 2.4314
ENERGY: 1300000 0.0000 0.0000 0.0000 0.0000 -10725.4424 1429.7978 0.0000 0.0000 1713.2471 -7582.3975 294.7505 -9295.6446 -7576.6526 299.6621 -190.5641 -104.5165 30213.5735 2.9954 2.9458
ENERGY: 1500000 0.0000 0.0000 0.0000 0.0000 -10506.1071 1314.7293 0.0000 0.0000 1705.4629 -7485.9149 293.4113 -9191.3777 -7482.1280 300.0148 -1118.0813 -1038.7726 30999.8454 1.9590 2.0489
ENERGY: 1700000 0.0000 0.0000 0.0000 0.0000 -10605.9015 1441.6955 0.0000 0.0000 1717.2369 -7446.9690 295.4369 -9164.2059 -7442.8825 300.5733 124.0765 202.9492 30629.2823 3.8654 3.9138
ENERGY: 1900000 0.0000 0.0000 0.0000 0.0000 -10688.8007 1448.2536 0.0000 0.0000 1756.9403 -7483.6069 302.2675 -9240.5472 -7479.4808 300.1324 353.9984 413.0109 30108.7000 3.5156 3.4398
TCL: Exiting due to exit command.
