Info: SIMULATION PARAMETERS:
Info: TIMESTEP               2
Info: NUMBER OF STEPS        0
Info: STEPS PER CYCLE        10
Info: PERIODIC CELL BASIS 1  36.592 0 0
Info: PERIODIC CELL BASIS 2  0 34.26 0
Info: PERIODIC CELL BASIS 3  0 0 34.229
Info: PERIODIC CELL CENTER   0 0 0
Info: WRAPPING WATERS AROUND PERIODIC BOUNDARIES ON OUTPUT.
Info: WRAPPING ALL CLUSTERS AROUND PERIODIC BOUNDARIES ON OUTPUT.
Info: FIRST LDB TIMESTEP     50
Info: LAST LDB TIMESTEP     -1
Info: HOM BACKGROUND SCALING 1
Info: PME BACKGROUND SCALING 1
Info: MIN ATOMS PER PATCH    40
Info: EMPTY PATCH LOAD       40 ATOMS
Info: INITIAL TEMPERATURE    300
Info: CENTER OF MASS MOVING INITIALLY? NO
Info: DIELECTRIC             1
Info: EXCLUDE                SCALED ONE-FOUR
Info: 1-4 ELECTROSTATICS SCALED BY 0.833333
Info: MODIFIED 1-4 VDW PARAMETERS WILL BE USED
Info: DCD FILENAME           mobley_197466_equil.dcd
Info: DCD FREQUENCY          100000
Info: DCD FIRST STEP         100000
Info: DCD FILE WILL CONTAIN UNIT CELL DATA
Info: XST FILENAME           mobley_197466_equil.xst
Info: XST FREQUENCY          100000
Info: NO VELOCITY DCD OUTPUT
Info: NO FORCE DCD OUTPUT
Info: OUTPUT FILENAME        mobley_197466_equil
Info: BINARY OUTPUT FILES WILL BE USED
Info: RESTART FILENAME       mobley_197466_equil.restart
Info: RESTART FREQUENCY      100000
Info: BINARY RESTART FILES WILL BE USED
Info: CUTOFF                 9
Info: PAIRLIST DISTANCE      11
Info: PAIRLIST SHRINK RATE   0.01
Info: PAIRLIST GROW RATE     0.01
Info: PAIRLIST TRIGGER       0.3
Info: PAIRLISTS PER CYCLE    2
Info: PAIRLISTS ENABLED
Info: MARGIN                 8
Info: HYDROGEN GROUP CUTOFF  2.5
Info: PATCH DIMENSION        21.5
Info: ENERGY OUTPUT STEPS    100000
Info: ENERGY EVALUATION STEPS    100000
Info: OUTPUT ENERGY PRECISION 4
Info: CROSSTERM ENERGY INCLUDED IN DIHEDRAL
Info: TIMING OUTPUT STEPS    1000000
Info: PRESSURE OUTPUT STEPS  100000
Info: FIXED ATOMS ACTIVE
Info: LANGEVIN DYNAMICS ACTIVE
Info: LANGEVIN TEMPERATURE   30
Info: LANGEVIN USING BBK INTEGRATOR
Info: LANGEVIN DAMPING COEFFICIENT IS 1 INVERSE PS
Info: LANGEVIN DYNAMICS APPLIED TO HYDROGENS
Info: LANGEVIN PISTON PRESSURE CONTROL ACTIVE
Info:        TARGET PRESSURE IS 1.01325 BAR
Info:     OSCILLATION PERIOD IS 50 FS
Info:             DECAY TIME IS 25 FS
Info:     PISTON TEMPERATURE IS 300 K
Info:       PRESSURE CONTROL IS GROUP-BASED
Info:    INITIAL STRAIN RATE IS 0 0 0
Info:       CELL FLUCTUATION IS ISOTROPIC
Info: PARTICLE MESH EWALD (PME) ACTIVE
Info: PME TOLERANCE               1e-06
Info: PME EWALD COEFFICIENT       0.348832
Info: PME INTERPOLATION ORDER     4
Info: PME GRID DIMENSIONS         40 36 36
Info: PME MAXIMUM GRID SPACING    1
Info: FULL ELECTROSTATIC EVALUATION FREQUENCY      2
Info: USING VERLET I (r-RESPA) MTS SCHEME.
Info: C1 SPLITTING OF LONG RANGE ELECTROSTATICS
Info: PLACING ATOMS IN PATCHES BY HYDROGEN GROUPS
Info: RIGID BONDS TO HYDROGEN : ALL
Info:         ERROR TOLERANCE : 1e-08
Info:          MAX ITERATIONS : 100
Info: RIGID WATER USING SETTLE ALGORITHM
Info: RANDOM NUMBER SEED     1743901121
Info: USE HYDROGEN BONDS?    NO
Info: Using AMBER format force field!
Info: AMBER PARM FILE        mobley_197466.prmtop
Info: COORDINATE PDB         mobley_197466.pdb
Info: Exclusions will be read from PARM file!
Info: SCNB (VDW SCALING)     2
Info: USING ARITHMETIC MEAN TO COMBINE L-J SIGMA PARAMETERS
Info: BINARY COORDINATES     mobley_197466_min.coor
Info: SUMMARY OF PARAMETERS:
Info: 8 BONDS
Info: 10 ANGLES
Info: 6 DIHEDRAL
Info: 0 IMPROPER
Info: 0 CROSSTERM
Info: 0 VDW
Info: 21 VDW_PAIRS
Info: 0 NBTHOLE_PAIRS
Info: STRUCTURE SUMMARY:
Info: 2909 ATOMS
Info: 2909 BONDS
Info: 27 ANGLES
Info: 43 DIHEDRALS
Info: 0 IMPROPERS
Info: 0 CROSSTERMS
Info: 2957 EXCLUSIONS
Info: 14 FIXED ATOMS
Info: 2903 RIGID BONDS
Info: 8 RIGID BONDS BETWEEN FIXED ATOMS
Info: 5790 DEGREES OF FREEDOM
Info: 971 HYDROGEN GROUPS
Info: 4 ATOMS IN LARGEST HYDROGEN GROUP
Info: 971 MIGRATION GROUPS
Info: 4 ATOMS IN LARGEST MIGRATION GROUP
Info: 6 HYDROGEN GROUPS WITH ALL ATOMS FIXED
Info: TOTAL MASS = 17469.6 amu
Info: TOTAL CHARGE = 9.99719e-05 e
Info: MASS DENSITY = 0.676041 g/cm^3
Info: ATOM DENSITY = 0.0677916 atoms/A^3
Info: ADDED 0 IMPLICIT EXCLUSIONS
Info: NONBONDED TABLE R-SQUARED SPACING: 0.0625
Info: NONBONDED TABLE SIZE: 705 POINTS
Info: REMOVING COM VELOCITY 0.219089 0.113383 -0.164637
TCL: Running for 100000 steps
ETITLE: TS BOND ANGLE DIHED IMPRP ELECT VDW BOUNDARY MISC KINETIC TOTAL TEMP POTENTIAL TOTAL3 TEMPAVG PRESSURE GPRESSURE VOLUME PRESSAVG GPRESSAVG
ENERGY: 0 0.0000 0.0000 0.0000 0.0000 -13454.0816 2343.2358 0.0000 0.0000 1709.1525 -9401.6933 297.0931 -11110.8458 -9401.3932 297.0931 401.0715 427.2948 42910.9093 401.0715 427.2948
ENERGY: 100000 0.0000 0.0000 0.0000 0.0000 -14040.6569 2466.0475 0.0000 0.0000 171.5966 -11403.0128 29.8278 -11574.6094 -11402.7666 30.9560 470.0937 490.1354 28753.3097 4.3239 4.2888
TCL: Running 100000 steps at 60 kelvin.
TCL: Setting parameter langevinTemp to 60
TCL: Running for 100000 steps
ETITLE: TS BOND ANGLE DIHED IMPRP ELECT VDW BOUNDARY MISC KINETIC TOTAL TEMP POTENTIAL TOTAL3 TEMPAVG PRESSURE GPRESSURE VOLUME PRESSAVG GPRESSAVG
ENERGY: 100000 0.0000 0.0000 0.0000 0.0000 -14040.6569 2466.0475 0.0000 0.0000 171.5081 -11403.1013 29.8124 -11574.6094 -11402.7086 29.8124 448.4096 489.9163 28753.3097 448.4096 489.9163
ENERGY: 200000 0.0000 0.0000 0.0000 0.0000 -13974.9304 2444.2602 0.0000 0.0000 342.4067 -11188.2635 59.5188 -11530.6702 -11187.7036 59.8851 687.1345 738.9264 28401.7756 4.3778 4.2739
TCL: Running 100000 steps at 90 kelvin.
TCL: Setting parameter langevinTemp to 90
TCL: Running for 100000 steps
ETITLE: TS BOND ANGLE DIHED IMPRP ELECT VDW BOUNDARY MISC KINETIC TOTAL TEMP POTENTIAL TOTAL3 TEMPAVG PRESSURE GPRESSURE VOLUME PRESSAVG GPRESSAVG
ENERGY: 200000 0.0000 0.0000 0.0000 0.0000 -13974.9304 2444.2602 0.0000 0.0000 342.2367 -11188.4334 59.4892 -11530.6702 -11187.7779 59.4892 687.9700 738.6850 28401.7756 687.9700 738.6850
ENERGY: 300000 0.0000 0.0000 0.0000 0.0000 -13861.6007 2433.8032 0.0000 0.0000 522.4991 -10905.2984 90.8233 -11427.7975 -10904.5786 89.9906 814.0066 869.0471 28638.3165 3.5808 3.6411
TCL: Running 100000 steps at 120 kelvin.
TCL: Setting parameter langevinTemp to 120
TCL: Running for 100000 steps
ETITLE: TS BOND ANGLE DIHED IMPRP ELECT VDW BOUNDARY MISC KINETIC TOTAL TEMP POTENTIAL TOTAL3 TEMPAVG PRESSURE GPRESSURE VOLUME PRESSAVG GPRESSAVG
ENERGY: 300000 0.0000 0.0000 0.0000 0.0000 -13861.6007 2433.8032 0.0000 0.0000 522.2363 -10905.5612 90.7776 -11427.7975 -10904.8419 90.7776 808.0049 868.9331 28638.3165 808.0049 868.9331
ENERGY: 400000 0.0000 0.0000 0.0000 0.0000 -13689.9979 2384.3964 0.0000 0.0000 673.8516 -10631.7499 117.1321 -11305.6015 -10630.8482 119.8782 752.0979 809.9821 28684.4198 5.2560 5.2177
TCL: Running 100000 steps at 150 kelvin.
TCL: Setting parameter langevinTemp to 150
TCL: Running for 100000 steps
ETITLE: TS BOND ANGLE DIHED IMPRP ELECT VDW BOUNDARY MISC KINETIC TOTAL TEMP POTENTIAL TOTAL3 TEMPAVG PRESSURE GPRESSURE VOLUME PRESSAVG GPRESSAVG
ENERGY: 400000 0.0000 0.0000 0.0000 0.0000 -13689.9979 2384.3964 0.0000 0.0000 673.5042 -10632.0973 117.0718 -11305.6015 -10631.0603 117.0718 756.5354 809.1807 28684.4198 756.5354 809.1807
ENERGY: 500000 0.0000 0.0000 0.0000 0.0000 -13376.3098 2203.4169 0.0000 0.0000 875.2500 -10297.6429 152.1402 -11172.8929 -10295.6347 150.3182 -427.5230 -344.0323 28962.6451 5.2788 5.3870
TCL: Running 100000 steps at 180 kelvin.
TCL: Setting parameter langevinTemp to 180
TCL: Running for 100000 steps
ETITLE: TS BOND ANGLE DIHED IMPRP ELECT VDW BOUNDARY MISC KINETIC TOTAL TEMP POTENTIAL TOTAL3 TEMPAVG PRESSURE GPRESSURE VOLUME PRESSAVG GPRESSAVG
ENERGY: 500000 0.0000 0.0000 0.0000 0.0000 -13376.3098 2203.4169 0.0000 0.0000 874.8119 -10298.0809 152.0640 -11172.8929 -10295.9193 152.0640 -416.1771 -344.2434 28962.6451 -416.1771 -344.2434
ENERGY: 600000 0.0000 0.0000 0.0000 0.0000 -13118.1071 2206.7402 0.0000 0.0000 1031.8593 -9879.5077 179.3628 -10911.3670 -9877.3087 180.1374 678.7110 784.4834 28558.6698 2.5238 2.6278
TCL: Running 100000 steps at 210 kelvin.
TCL: Setting parameter langevinTemp to 210
TCL: Running for 100000 steps
ETITLE: TS BOND ANGLE DIHED IMPRP ELECT VDW BOUNDARY MISC KINETIC TOTAL TEMP POTENTIAL TOTAL3 TEMPAVG PRESSURE GPRESSURE VOLUME PRESSAVG GPRESSAVG
ENERGY: 600000 0.0000 0.0000 0.0000 0.0000 -13118.1071 2206.7402 0.0000 0.0000 1031.3442 -9880.0227 179.2732 -10911.3670 -9878.4094 179.2732 708.1254 784.2522 28558.6698 708.1254 784.2522
ENERGY: 700000 0.0000 0.0000 0.0000 0.0000 -12262.2887 1838.6178 0.0000 0.0000 1198.5930 -9225.0780 208.3452 -10423.6710 -9222.7564 209.8778 -294.4475 -190.8160 28472.7615 3.6256 3.6669
TCL: Running 100000 steps at 240 kelvin.
TCL: Setting parameter langevinTemp to 240
TCL: Running for 100000 steps
ETITLE: TS BOND ANGLE DIHED IMPRP ELECT VDW BOUNDARY MISC KINETIC TOTAL TEMP POTENTIAL TOTAL3 TEMPAVG PRESSURE GPRESSURE VOLUME PRESSAVG GPRESSAVG
ENERGY: 700000 0.0000 0.0000 0.0000 0.0000 -12262.2887 1838.6178 0.0000 0.0000 1197.9983 -9225.6727 208.2418 -10423.6710 -9223.5393 208.2418 -274.4501 -191.3210 28472.7615 -274.4501 -191.3210
ENERGY: 800000 0.0000 0.0000 0.0000 0.0000 -11687.0869 1644.8696 0.0000 0.0000 1432.5247 -8609.6927 249.0084 -10042.2174 -8606.9389 239.9171 -630.0311 -546.3675 28901.9705 3.1757 3.1652
TCL: Running 100000 steps at 270 kelvin.
TCL: Setting parameter langevinTemp to 270
TCL: Running for 100000 steps
ETITLE: TS BOND ANGLE DIHED IMPRP ELECT VDW BOUNDARY MISC KINETIC TOTAL TEMP POTENTIAL TOTAL3 TEMPAVG PRESSURE GPRESSURE VOLUME PRESSAVG GPRESSAVG
ENERGY: 800000 0.0000 0.0000 0.0000 0.0000 -11687.0869 1644.8696 0.0000 0.0000 1431.8349 -8610.3825 248.8885 -10042.2174 -8607.6055 248.8885 -621.5729 -546.4525 28901.9705 -621.5729 -546.4525
ENERGY: 900000 0.0000 0.0000 0.0000 0.0000 -11170.2516 1601.4279 0.0000 0.0000 1598.0052 -7970.8185 277.7730 -9568.8237 -7968.3482 269.4555 493.8756 585.0998 29057.9333 3.9951 3.7933
TCL: Running 1000000 steps at 300 kelvin.
TCL: Setting parameter langevinTemp to 300
TCL: Running for 1000000 steps
ETITLE: TS BOND ANGLE DIHED IMPRP ELECT VDW BOUNDARY MISC KINETIC TOTAL TEMP POTENTIAL TOTAL3 TEMPAVG PRESSURE GPRESSURE VOLUME PRESSAVG GPRESSAVG
ENERGY: 900000 0.0000 0.0000 0.0000 0.0000 -11170.2516 1601.4279 0.0000 0.0000 1597.2395 -7971.5841 277.6399 -9568.8237 -7968.8870 277.6399 495.8228 583.6103 29057.9333 495.8228 583.6103
ENERGY: 1100000 0.0000 0.0000 0.0000 0.0000 -10613.5703 1443.6495 0.0000 0.0000 1692.4673 -7477.4535 294.1928 -9169.9208 -7474.5195 300.0849 134.1240 265.5199 29942.5100 3.1075 3.1193
ENERGY: 1300000 0.0000 0.0000 0.0000 0.0000 -10527.0768 1389.3834 0.0000 0.0000 1776.1078 -7361.5857 308.7316 -9137.6935 -7357.7832 300.2757 156.2018 259.8206 29612.0442 2.7736 2.6701
ENERGY: 1500000 0.0000 0.0000 0.0000 0.0000 -10582.2671 1372.7379 0.0000 0.0000 1757.8529 -7451.6763 305.5585 -9209.5293 -7447.4742 299.4397 -576.0018 -476.4710 30172.4220 4.0189 3.8337
ENERGY: 1700000 0.0000 0.0000 0.0000 0.0000 -10674.4136 1448.4929 0.0000 0.0000 1737.2006 -7488.7201 301.9686 -9225.9207 -7488.2166 300.3886 141.3946 223.4643 29933.5788 1.0801 1.2571
ENERGY: 1900000 0.0000 0.0000 0.0000 0.0000 -10616.1344 1425.5203 0.0000 0.0000 1759.5674 -7431.0468 305.8565 -9190.6142 -7427.4584 300.3116 -137.7623 -69.3342 30209.7150 1.6882 1.8818
TCL: Exiting due to exit command.
