Info: SIMULATION PARAMETERS:
Info: TIMESTEP               2
Info: NUMBER OF STEPS        0
Info: STEPS PER CYCLE        10
Info: PERIODIC CELL BASIS 1  37.133 0 0
Info: PERIODIC CELL BASIS 2  0 36.762 0
Info: PERIODIC CELL BASIS 3  0 0 31.349
Info: PERIODIC CELL CENTER   0 0 0
Info: WRAPPING WATERS AROUND PERIODIC BOUNDARIES ON OUTPUT.
Info: WRAPPING ALL CLUSTERS AROUND PERIODIC BOUNDARIES ON OUTPUT.
Info: FIRST LDB TIMESTEP     50
Info: LAST LDB TIMESTEP     -1
Info: HOM BACKGROUND SCALING 1
Info: PME BACKGROUND SCALING 1
Info: MIN ATOMS PER PATCH    40
Info: EMPTY PATCH LOAD       40 ATOMS
Info: INITIAL TEMPERATURE    300
Info: CENTER OF MASS MOVING INITIALLY? NO
Info: DIELECTRIC             1
Info: EXCLUDE                SCALED ONE-FOUR
Info: 1-4 ELECTROSTATICS SCALED BY 0.833333
Info: MODIFIED 1-4 VDW PARAMETERS WILL BE USED
Info: DCD FILENAME           mobley_3980099_equil.dcd
Info: DCD FREQUENCY          100000
Info: DCD FIRST STEP         100000
Info: DCD FILE WILL CONTAIN UNIT CELL DATA
Info: XST FILENAME           mobley_3980099_equil.xst
Info: XST FREQUENCY          100000
Info: NO VELOCITY DCD OUTPUT
Info: NO FORCE DCD OUTPUT
Info: OUTPUT FILENAME        mobley_3980099_equil
Info: BINARY OUTPUT FILES WILL BE USED
Info: RESTART FILENAME       mobley_3980099_equil.restart
Info: RESTART FREQUENCY      100000
Info: BINARY RESTART FILES WILL BE USED
Info: CUTOFF                 9
Info: PAIRLIST DISTANCE      11
Info: PAIRLIST SHRINK RATE   0.01
Info: PAIRLIST GROW RATE     0.01
Info: PAIRLIST TRIGGER       0.3
Info: PAIRLISTS PER CYCLE    2
Info: PAIRLISTS ENABLED
Info: MARGIN                 8
Info: HYDROGEN GROUP CUTOFF  2.5
Info: PATCH DIMENSION        21.5
Info: ENERGY OUTPUT STEPS    100000
Info: ENERGY EVALUATION STEPS    100000
Info: OUTPUT ENERGY PRECISION 4
Info: CROSSTERM ENERGY INCLUDED IN DIHEDRAL
Info: TIMING OUTPUT STEPS    1000000
Info: PRESSURE OUTPUT STEPS  100000
Info: FIXED ATOMS ACTIVE
Info: LANGEVIN DYNAMICS ACTIVE
Info: LANGEVIN TEMPERATURE   30
Info: LANGEVIN USING BBK INTEGRATOR
Info: LANGEVIN DAMPING COEFFICIENT IS 1 INVERSE PS
Info: LANGEVIN DYNAMICS APPLIED TO HYDROGENS
Info: LANGEVIN PISTON PRESSURE CONTROL ACTIVE
Info:        TARGET PRESSURE IS 1.01325 BAR
Info:     OSCILLATION PERIOD IS 50 FS
Info:             DECAY TIME IS 25 FS
Info:     PISTON TEMPERATURE IS 300 K
Info:       PRESSURE CONTROL IS GROUP-BASED
Info:    INITIAL STRAIN RATE IS 0 0 0
Info:       CELL FLUCTUATION IS ISOTROPIC
Info: PARTICLE MESH EWALD (PME) ACTIVE
Info: PME TOLERANCE               1e-06
Info: PME EWALD COEFFICIENT       0.348832
Info: PME INTERPOLATION ORDER     4
Info: PME GRID DIMENSIONS         40 40 32
Info: PME MAXIMUM GRID SPACING    1
Info: FULL ELECTROSTATIC EVALUATION FREQUENCY      2
Info: USING VERLET I (r-RESPA) MTS SCHEME.
Info: C1 SPLITTING OF LONG RANGE ELECTROSTATICS
Info: PLACING ATOMS IN PATCHES BY HYDROGEN GROUPS
Info: RIGID BONDS TO HYDROGEN : ALL
Info:         ERROR TOLERANCE : 1e-08
Info:          MAX ITERATIONS : 100
Info: RIGID WATER USING SETTLE ALGORITHM
Info: RANDOM NUMBER SEED     1743720284
Info: USE HYDROGEN BONDS?    NO
Info: Using AMBER format force field!
Info: AMBER PARM FILE        mobley_3980099.prmtop
Info: COORDINATE PDB         mobley_3980099.pdb
Info: Exclusions will be read from PARM file!
Info: SCNB (VDW SCALING)     2
Info: USING ARITHMETIC MEAN TO COMBINE L-J SIGMA PARAMETERS
Info: BINARY COORDINATES     mobley_3980099_min.coor
Info: SUMMARY OF PARAMETERS:
Info: 5 BONDS
Info: 3 ANGLES
Info:   3 HARMONIC
Info:   0 COSINE-BASED
Info: 2 DIHEDRAL
Info: 0 IMPROPER
Info: 0 CROSSTERM
Info: 0 VDW
Info: 15 VDW_PAIRS
Info: 0 NBTHOLE_PAIRS
Info: STRUCTURE SUMMARY:
Info: 2916 ATOMS
Info: 2916 BONDS
Info: 18 ANGLES
Info: 30 DIHEDRALS
Info: 0 IMPROPERS
Info: 0 CROSSTERMS
Info: 2955 EXCLUSIONS
Info: 12 FIXED ATOMS
Info: 2907 RIGID BONDS
Info: 3 RIGID BONDS BETWEEN FIXED ATOMS
Info: 5808 DEGREES OF FREEDOM
Info: 977 HYDROGEN GROUPS
Info: 3 ATOMS IN LARGEST HYDROGEN GROUP
Info: 977 MIGRATION GROUPS
Info: 3 ATOMS IN LARGEST MIGRATION GROUP
Info: 9 HYDROGEN GROUPS WITH ALL ATOMS FIXED
Info: TOTAL MASS = 17620.9 amu
Info: TOTAL CHARGE = -1.11759e-08 e
Info: MASS DENSITY = 0.683762 g/cm^3
Info: ATOM DENSITY = 0.0681404 atoms/A^3
Info: ADDED 0 IMPLICIT EXCLUSIONS
Info: NONBONDED TABLE R-SQUARED SPACING: 0.0625
Info: NONBONDED TABLE SIZE: 705 POINTS
Info: REMOVING COM VELOCITY 0.0522803 0.0211757 0.00787422
TCL: Running for 100000 steps
ETITLE: TS BOND ANGLE DIHED IMPRP ELECT VDW BOUNDARY MISC KINETIC TOTAL TEMP POTENTIAL TOTAL3 TEMPAVG PRESSURE GPRESSURE VOLUME PRESSAVG GPRESSAVG
ENERGY: 0 0.0000 0.0000 0.0000 0.0000 -13534.2163 2358.2003 0.0000 0.0000 1776.6152 -9399.4007 307.8628 -11176.0159 -9399.0276 307.8628 251.7119 278.0227 42793.9978 251.7119 278.0227
ENERGY: 100000 0.0000 0.0000 0.0000 0.0000 -14045.9717 2418.6002 0.0000 0.0000 167.5707 -11459.8008 29.0377 -11627.3715 -11459.3076 30.9176 -418.1677 -344.4229 28821.6280 2.1787 2.1673
TCL: Running 100000 steps at 60 kelvin.
TCL: Setting parameter langevinTemp to 60
TCL: Running for 100000 steps
ETITLE: TS BOND ANGLE DIHED IMPRP ELECT VDW BOUNDARY MISC KINETIC TOTAL TEMP POTENTIAL TOTAL3 TEMPAVG PRESSURE GPRESSURE VOLUME PRESSAVG GPRESSAVG
ENERGY: 100000 0.0000 0.0000 0.0000 0.0000 -14045.9717 2418.6002 0.0000 0.0000 167.4833 -11459.8881 29.0225 -11627.3715 -11459.5721 29.0225 -402.3979 -344.3916 28821.6280 -402.3979 -344.3916
ENERGY: 200000 0.0000 0.0000 0.0000 0.0000 -13954.0813 2373.0625 0.0000 0.0000 335.1994 -11245.8194 58.0854 -11581.0188 -11244.9322 59.9721 -499.2854 -454.5364 28526.4284 3.7358 3.7619
TCL: Running 100000 steps at 90 kelvin.
TCL: Setting parameter langevinTemp to 90
TCL: Running for 100000 steps
ETITLE: TS BOND ANGLE DIHED IMPRP ELECT VDW BOUNDARY MISC KINETIC TOTAL TEMP POTENTIAL TOTAL3 TEMPAVG PRESSURE GPRESSURE VOLUME PRESSAVG GPRESSAVG
ENERGY: 200000 0.0000 0.0000 0.0000 0.0000 -13954.0813 2373.0625 0.0000 0.0000 335.0277 -11245.9911 58.0557 -11581.0188 -11245.3290 58.0557 -509.7274 -454.0070 28526.4284 -509.7274 -454.0070
ENERGY: 300000 0.0000 0.0000 0.0000 0.0000 -13771.6499 2309.3177 0.0000 0.0000 520.8436 -10941.4886 90.2550 -11462.3322 -10940.3256 89.8648 -441.3480 -434.1511 28488.3362 4.3404 4.3124
TCL: Running 100000 steps at 120 kelvin.
TCL: Setting parameter langevinTemp to 120
TCL: Running for 100000 steps
ETITLE: TS BOND ANGLE DIHED IMPRP ELECT VDW BOUNDARY MISC KINETIC TOTAL TEMP POTENTIAL TOTAL3 TEMPAVG PRESSURE GPRESSURE VOLUME PRESSAVG GPRESSAVG
ENERGY: 300000 0.0000 0.0000 0.0000 0.0000 -13771.6499 2309.3177 0.0000 0.0000 520.5765 -10941.7557 90.2087 -11462.3322 -10940.7557 90.2087 -494.1562 -434.1579 28488.3362 -494.1562 -434.1579
ENERGY: 400000 0.0000 0.0000 0.0000 0.0000 -13639.8031 2297.6100 0.0000 0.0000 675.8010 -10666.3921 117.1069 -11342.1931 -10664.1570 120.2553 -316.3580 -252.8268 28817.3256 3.5545 3.5044
TCL: Running 100000 steps at 150 kelvin.
TCL: Setting parameter langevinTemp to 150
TCL: Running for 100000 steps
ETITLE: TS BOND ANGLE DIHED IMPRP ELECT VDW BOUNDARY MISC KINETIC TOTAL TEMP POTENTIAL TOTAL3 TEMPAVG PRESSURE GPRESSURE VOLUME PRESSAVG GPRESSAVG
ENERGY: 400000 0.0000 0.0000 0.0000 0.0000 -13639.8031 2297.6100 0.0000 0.0000 675.4502 -10666.7429 117.0461 -11342.1931 -10665.5692 117.0461 -296.8678 -251.9697 28817.3256 -296.8678 -251.9697
ENERGY: 500000 0.0000 0.0000 0.0000 0.0000 -13307.6946 2170.1251 0.0000 0.0000 860.7760 -10276.7935 149.1605 -11137.5695 -10274.3389 150.2677 -578.8348 -529.9456 28947.2662 5.1747 5.1485
TCL: Running 100000 steps at 180 kelvin.
TCL: Setting parameter langevinTemp to 180
TCL: Running for 100000 steps
ETITLE: TS BOND ANGLE DIHED IMPRP ELECT VDW BOUNDARY MISC KINETIC TOTAL TEMP POTENTIAL TOTAL3 TEMPAVG PRESSURE GPRESSURE VOLUME PRESSAVG GPRESSAVG
ENERGY: 500000 0.0000 0.0000 0.0000 0.0000 -13307.6946 2170.1251 0.0000 0.0000 860.3464 -10277.2232 149.0861 -11137.5695 -10275.6821 149.0861 -589.8854 -529.7986 28947.2662 -589.8854 -529.7986
ENERGY: 600000 0.0000 0.0000 0.0000 0.0000 -12831.2055 1992.2735 0.0000 0.0000 1060.0279 -9778.9040 183.6881 -10838.9320 -9776.5666 179.2310 -999.5284 -943.0014 29207.8978 2.6033 2.5545
TCL: Running 100000 steps at 210 kelvin.
TCL: Setting parameter langevinTemp to 210
TCL: Running for 100000 steps
ETITLE: TS BOND ANGLE DIHED IMPRP ELECT VDW BOUNDARY MISC KINETIC TOTAL TEMP POTENTIAL TOTAL3 TEMPAVG PRESSURE GPRESSURE VOLUME PRESSAVG GPRESSAVG
ENERGY: 600000 0.0000 0.0000 0.0000 0.0000 -12831.2055 1992.2735 0.0000 0.0000 1059.5030 -9779.4290 183.5972 -10838.9320 -9777.6769 183.5972 -1000.9340 -942.7519 29207.8978 -1000.9340 -942.7519
ENERGY: 700000 0.0000 0.0000 0.0000 0.0000 -12237.5644 1790.8122 0.0000 0.0000 1245.4422 -9201.3100 215.8178 -10446.7522 -9197.8685 209.5448 -739.7014 -634.0977 28403.3742 4.4899 4.5003
TCL: Running 100000 steps at 240 kelvin.
TCL: Setting parameter langevinTemp to 240
TCL: Running for 100000 steps
ETITLE: TS BOND ANGLE DIHED IMPRP ELECT VDW BOUNDARY MISC KINETIC TOTAL TEMP POTENTIAL TOTAL3 TEMPAVG PRESSURE GPRESSURE VOLUME PRESSAVG GPRESSAVG
ENERGY: 700000 0.0000 0.0000 0.0000 0.0000 -12237.5644 1790.8122 0.0000 0.0000 1244.8366 -9201.9156 215.7129 -10446.7522 -9199.3431 215.7129 -717.6669 -634.8019 28403.3742 -717.6669 -634.8019
ENERGY: 800000 0.0000 0.0000 0.0000 0.0000 -11595.3202 1633.7655 0.0000 0.0000 1369.3181 -8592.2367 237.2838 -9961.5548 -8589.0977 240.1749 -301.2818 -215.3265 28647.2093 3.0599 2.9062
TCL: Running 100000 steps at 270 kelvin.
TCL: Setting parameter langevinTemp to 270
TCL: Running for 100000 steps
ETITLE: TS BOND ANGLE DIHED IMPRP ELECT VDW BOUNDARY MISC KINETIC TOTAL TEMP POTENTIAL TOTAL3 TEMPAVG PRESSURE GPRESSURE VOLUME PRESSAVG GPRESSAVG
ENERGY: 800000 0.0000 0.0000 0.0000 0.0000 -11595.3202 1633.7655 0.0000 0.0000 1368.6453 -8592.9095 237.1672 -9961.5548 -8590.6722 237.1672 -302.9438 -213.1487 28647.2093 -302.9438 -213.1487
ENERGY: 900000 0.0000 0.0000 0.0000 0.0000 -11021.5686 1488.3794 0.0000 0.0000 1583.1080 -7950.0811 274.3307 -9533.1892 -7946.7291 270.2003 -336.8776 -331.0665 29529.9318 3.2551 3.1854
TCL: Running 1000000 steps at 300 kelvin.
TCL: Setting parameter langevinTemp to 300
TCL: Running for 1000000 steps
ETITLE: TS BOND ANGLE DIHED IMPRP ELECT VDW BOUNDARY MISC KINETIC TOTAL TEMP POTENTIAL TOTAL3 TEMPAVG PRESSURE GPRESSURE VOLUME PRESSAVG GPRESSAVG
ENERGY: 900000 0.0000 0.0000 0.0000 0.0000 -11021.5686 1488.3794 0.0000 0.0000 1582.3436 -7950.8456 274.1982 -9533.1892 -7948.7605 274.1982 -424.7670 -330.5724 29529.9318 -424.7670 -330.5724
ENERGY: 1100000 0.0000 0.0000 0.0000 0.0000 -10550.8196 1384.5439 0.0000 0.0000 1680.2672 -7486.0085 291.1670 -9166.2757 -7485.3334 300.4931 -285.6495 -197.7662 30177.7318 4.9399 4.9338
ENERGY: 1300000 0.0000 0.0000 0.0000 0.0000 -10743.5373 1564.0043 0.0000 0.0000 1807.9842 -7371.5489 313.2986 -9179.5330 -7368.6329 300.5987 1152.6284 1240.3908 30005.4936 4.3770 4.1868
ENERGY: 1500000 0.0000 0.0000 0.0000 0.0000 -10629.2603 1394.4454 0.0000 0.0000 1768.8289 -7465.9860 306.5135 -9234.8149 -7464.9170 299.7155 -415.2482 -370.0375 30066.3635 2.3778 2.1381
ENERGY: 1700000 0.0000 0.0000 0.0000 0.0000 -10473.4112 1351.7847 0.0000 0.0000 1718.7605 -7402.8660 297.8373 -9121.6265 -7399.1999 300.6069 -300.7926 -238.0985 30099.3150 3.3843 3.4865
ENERGY: 1900000 0.0000 0.0000 0.0000 0.0000 -10602.2174 1400.2254 0.0000 0.0000 1729.0849 -7472.9071 299.6264 -9201.9920 -7468.0570 299.7208 -201.8557 -164.2823 30211.7406 3.7882 3.8834
TCL: Exiting due to exit command.
