Info: SIMULATION PARAMETERS:
Info: TIMESTEP               2
Info: NUMBER OF STEPS        0
Info: STEPS PER CYCLE        10
Info: PERIODIC CELL BASIS 1  37.38 0 0
Info: PERIODIC CELL BASIS 2  0 34.696 0
Info: PERIODIC CELL BASIS 3  0 0 33.27
Info: PERIODIC CELL CENTER   0 0 0
Info: WRAPPING WATERS AROUND PERIODIC BOUNDARIES ON OUTPUT.
Info: WRAPPING ALL CLUSTERS AROUND PERIODIC BOUNDARIES ON OUTPUT.
Info: FIRST LDB TIMESTEP     50
Info: LAST LDB TIMESTEP     -1
Info: HOM BACKGROUND SCALING 1
Info: PME BACKGROUND SCALING 1
Info: MIN ATOMS PER PATCH    40
Info: EMPTY PATCH LOAD       40 ATOMS
Info: INITIAL TEMPERATURE    300
Info: CENTER OF MASS MOVING INITIALLY? NO
Info: DIELECTRIC             1
Info: EXCLUDE                SCALED ONE-FOUR
Info: 1-4 ELECTROSTATICS SCALED BY 0.833333
Info: MODIFIED 1-4 VDW PARAMETERS WILL BE USED
Info: DCD FILENAME           mobley_1905088_equil.dcd
Info: DCD FREQUENCY          100000
Info: DCD FIRST STEP         100000
Info: DCD FILE WILL CONTAIN UNIT CELL DATA
Info: XST FILENAME           mobley_1905088_equil.xst
Info: XST FREQUENCY          100000
Info: NO VELOCITY DCD OUTPUT
Info: NO FORCE DCD OUTPUT
Info: OUTPUT FILENAME        mobley_1905088_equil
Info: BINARY OUTPUT FILES WILL BE USED
Info: RESTART FILENAME       mobley_1905088_equil.restart
Info: RESTART FREQUENCY      100000
Info: BINARY RESTART FILES WILL BE USED
Info: CUTOFF                 9
Info: PAIRLIST DISTANCE      11
Info: PAIRLIST SHRINK RATE   0.01
Info: PAIRLIST GROW RATE     0.01
Info: PAIRLIST TRIGGER       0.3
Info: PAIRLISTS PER CYCLE    2
Info: PAIRLISTS ENABLED
Info: MARGIN                 8
Info: HYDROGEN GROUP CUTOFF  2.5
Info: PATCH DIMENSION        21.5
Info: ENERGY OUTPUT STEPS    100000
Info: ENERGY EVALUATION STEPS    100000
Info: OUTPUT ENERGY PRECISION 4
Info: CROSSTERM ENERGY INCLUDED IN DIHEDRAL
Info: TIMING OUTPUT STEPS    1000000
Info: PRESSURE OUTPUT STEPS  100000
Info: FIXED ATOMS ACTIVE
Info: LANGEVIN DYNAMICS ACTIVE
Info: LANGEVIN TEMPERATURE   30
Info: LANGEVIN USING BBK INTEGRATOR
Info: LANGEVIN DAMPING COEFFICIENT IS 1 INVERSE PS
Info: LANGEVIN DYNAMICS APPLIED TO HYDROGENS
Info: LANGEVIN PISTON PRESSURE CONTROL ACTIVE
Info:        TARGET PRESSURE IS 1.01325 BAR
Info:     OSCILLATION PERIOD IS 50 FS
Info:             DECAY TIME IS 25 FS
Info:     PISTON TEMPERATURE IS 300 K
Info:       PRESSURE CONTROL IS GROUP-BASED
Info:    INITIAL STRAIN RATE IS 0 0 0
Info:       CELL FLUCTUATION IS ISOTROPIC
Info: PARTICLE MESH EWALD (PME) ACTIVE
Info: PME TOLERANCE               1e-06
Info: PME EWALD COEFFICIENT       0.348832
Info: PME INTERPOLATION ORDER     4
Info: PME GRID DIMENSIONS         40 36 36
Info: PME MAXIMUM GRID SPACING    1
Info: FULL ELECTROSTATIC EVALUATION FREQUENCY      2
Info: USING VERLET I (r-RESPA) MTS SCHEME.
Info: C1 SPLITTING OF LONG RANGE ELECTROSTATICS
Info: PLACING ATOMS IN PATCHES BY HYDROGEN GROUPS
Info: RIGID BONDS TO HYDROGEN : ALL
Info:         ERROR TOLERANCE : 1e-08
Info:          MAX ITERATIONS : 100
Info: RIGID WATER USING SETTLE ALGORITHM
Info: RANDOM NUMBER SEED     1744089513
Info: USE HYDROGEN BONDS?    NO
Info: Using AMBER format force field!
Info: AMBER PARM FILE        mobley_1905088.prmtop
Info: COORDINATE PDB         mobley_1905088.pdb
Info: Exclusions will be read from PARM file!
Info: SCNB (VDW SCALING)     2
Info: USING ARITHMETIC MEAN TO COMBINE L-J SIGMA PARAMETERS
Info: BINARY COORDINATES     mobley_1905088_min.coor
Info: SUMMARY OF PARAMETERS:
Info: 7 BONDS
Info: 7 ANGLES
Info:   7 HARMONIC
Info:   0 COSINE-BASED
Info: 3 DIHEDRAL
Info: 0 IMPROPER
Info: 0 CROSSTERM
Info: 0 VDW
Info: 28 VDW_PAIRS
Info: 0 NBTHOLE_PAIRS
Info: STRUCTURE SUMMARY:
Info: 2901 ATOMS
Info: 2901 BONDS
Info: 24 ANGLES
Info: 36 DIHEDRALS
Info: 0 IMPROPERS
Info: 0 CROSSTERMS
Info: 2952 EXCLUSIONS
Info: 15 FIXED ATOMS
Info: 2893 RIGID BONDS
Info: 7 RIGID BONDS BETWEEN FIXED ATOMS
Info: 5772 DEGREES OF FREEDOM
Info: 970 HYDROGEN GROUPS
Info: 3 ATOMS IN LARGEST HYDROGEN GROUP
Info: 970 MIGRATION GROUPS
Info: 3 ATOMS IN LARGEST MIGRATION GROUP
Info: 8 HYDROGEN GROUPS WITH ALL ATOMS FIXED
Info: TOTAL MASS = 17502.4 amu
Info: TOTAL CHARGE = -1.86265e-08 e
Info: MASS DENSITY = 0.673575 g/cm^3
Info: ATOM DENSITY = 0.067232 atoms/A^3
Info: ADDED 0 IMPLICIT EXCLUSIONS
Info: NONBONDED TABLE R-SQUARED SPACING: 0.0625
Info: NONBONDED TABLE SIZE: 705 POINTS
Info: REMOVING COM VELOCITY -0.00334339 -0.100273 0.0302707
TCL: Running for 100000 steps
ETITLE: TS BOND ANGLE DIHED IMPRP ELECT VDW BOUNDARY MISC KINETIC TOTAL TEMP POTENTIAL TOTAL3 TEMPAVG PRESSURE GPRESSURE VOLUME PRESSAVG GPRESSAVG
ENERGY: 0 0.0000 0.0000 0.0000 0.0000 -13460.1974 2372.5642 0.0000 0.0000 1769.1572 -9318.4761 308.4825 -11087.6333 -9318.1065 308.4825 410.3473 449.7324 43149.0767 410.3473 449.7324
ENERGY: 100000 0.0000 0.0000 0.0000 0.0000 -13976.0314 2413.5051 0.0000 0.0000 171.7083 -11390.8180 29.9402 -11562.5263 -11390.1376 31.0072 -121.3640 -75.0425 28224.5936 4.0553 4.1025
TCL: Running 100000 steps at 60 kelvin.
TCL: Setting parameter langevinTemp to 60
TCL: Running for 100000 steps
ETITLE: TS BOND ANGLE DIHED IMPRP ELECT VDW BOUNDARY MISC KINETIC TOTAL TEMP POTENTIAL TOTAL3 TEMPAVG PRESSURE GPRESSURE VOLUME PRESSAVG GPRESSAVG
ENERGY: 100000 0.0000 0.0000 0.0000 0.0000 -13976.0314 2413.5051 0.0000 0.0000 171.6209 -11390.9054 29.9250 -11562.5263 -11390.5985 29.9250 -119.6576 -74.9037 28224.5936 -119.6576 -74.9037
ENERGY: 200000 0.0000 0.0000 0.0000 0.0000 -13904.7805 2409.0985 0.0000 0.0000 344.3065 -11151.3756 60.0357 -11495.6821 -11150.5760 59.9279 180.1523 219.4756 28019.1048 3.9243 3.9459
TCL: Running 100000 steps at 90 kelvin.
TCL: Setting parameter langevinTemp to 90
TCL: Running for 100000 steps
ETITLE: TS BOND ANGLE DIHED IMPRP ELECT VDW BOUNDARY MISC KINETIC TOTAL TEMP POTENTIAL TOTAL3 TEMPAVG PRESSURE GPRESSURE VOLUME PRESSAVG GPRESSAVG
ENERGY: 200000 0.0000 0.0000 0.0000 0.0000 -13904.7805 2409.0985 0.0000 0.0000 344.1323 -11151.5498 60.0053 -11495.6821 -11150.8538 60.0053 174.3438 219.5165 28019.1048 174.3438 219.5165
ENERGY: 300000 0.0000 0.0000 0.0000 0.0000 -13676.3178 2261.4851 0.0000 0.0000 525.9969 -10888.8358 91.7164 -11414.8327 -10886.8426 90.0671 -672.4634 -631.0937 28107.0846 4.3543 4.4346
TCL: Running 100000 steps at 120 kelvin.
TCL: Setting parameter langevinTemp to 120
TCL: Running for 100000 steps
ETITLE: TS BOND ANGLE DIHED IMPRP ELECT VDW BOUNDARY MISC KINETIC TOTAL TEMP POTENTIAL TOTAL3 TEMPAVG PRESSURE GPRESSURE VOLUME PRESSAVG GPRESSAVG
ENERGY: 300000 0.0000 0.0000 0.0000 0.0000 -13676.3178 2261.4851 0.0000 0.0000 525.7440 -10889.0887 91.6723 -11414.8327 -10887.7301 91.6723 -679.9455 -630.8092 28107.0846 -679.9455 -630.8092
ENERGY: 400000 0.0000 0.0000 0.0000 0.0000 -13505.0904 2251.0439 0.0000 0.0000 674.2148 -10579.8318 117.5607 -11254.0465 -10578.6116 119.7647 -217.1073 -201.3683 28255.6152 3.6319 3.4821
TCL: Running 100000 steps at 150 kelvin.
TCL: Setting parameter langevinTemp to 150
TCL: Running for 100000 steps
ETITLE: TS BOND ANGLE DIHED IMPRP ELECT VDW BOUNDARY MISC KINETIC TOTAL TEMP POTENTIAL TOTAL3 TEMPAVG PRESSURE GPRESSURE VOLUME PRESSAVG GPRESSAVG
ENERGY: 400000 0.0000 0.0000 0.0000 0.0000 -13505.0904 2251.0439 0.0000 0.0000 673.8674 -10580.1792 117.5002 -11254.0465 -10578.8140 117.5002 -260.2926 -201.8862 28255.6152 -260.2926 -201.8862
ENERGY: 500000 0.0000 0.0000 0.0000 0.0000 -13310.5994 2198.1973 0.0000 0.0000 874.5240 -10237.8780 152.4880 -11112.4021 -10235.7156 149.6788 -254.8101 -234.4586 28559.5895 3.9990 3.9253
TCL: Running 100000 steps at 180 kelvin.
TCL: Setting parameter langevinTemp to 180
TCL: Running for 100000 steps
ETITLE: TS BOND ANGLE DIHED IMPRP ELECT VDW BOUNDARY MISC KINETIC TOTAL TEMP POTENTIAL TOTAL3 TEMPAVG PRESSURE GPRESSURE VOLUME PRESSAVG GPRESSAVG
ENERGY: 500000 0.0000 0.0000 0.0000 0.0000 -13310.5994 2198.1973 0.0000 0.0000 874.0960 -10238.3061 152.4134 -11112.4021 -10236.6482 152.4134 -280.3272 -233.7867 28559.5895 -280.3272 -233.7867
ENERGY: 600000 0.0000 0.0000 0.0000 0.0000 -12916.2511 2054.1321 0.0000 0.0000 1041.5822 -9820.5368 181.6175 -10862.1190 -9819.0616 179.4558 -495.9008 -433.0183 28620.5255 4.1347 4.1691
TCL: Running 100000 steps at 210 kelvin.
TCL: Setting parameter langevinTemp to 210
TCL: Running for 100000 steps
ETITLE: TS BOND ANGLE DIHED IMPRP ELECT VDW BOUNDARY MISC KINETIC TOTAL TEMP POTENTIAL TOTAL3 TEMPAVG PRESSURE GPRESSURE VOLUME PRESSAVG GPRESSAVG
ENERGY: 600000 0.0000 0.0000 0.0000 0.0000 -12916.2511 2054.1321 0.0000 0.0000 1041.0590 -9821.0600 181.5262 -10862.1190 -9818.1301 181.5262 -487.8371 -434.5160 28620.5255 -487.8371 -434.5160
ENERGY: 700000 0.0000 0.0000 0.0000 0.0000 -12156.3109 1843.8475 0.0000 0.0000 1201.1631 -9111.3003 209.4431 -10312.4634 -9108.5351 209.6406 -57.1229 -10.6306 28430.6460 4.1599 3.9923
TCL: Running 100000 steps at 240 kelvin.
TCL: Setting parameter langevinTemp to 240
TCL: Running for 100000 steps
ETITLE: TS BOND ANGLE DIHED IMPRP ELECT VDW BOUNDARY MISC KINETIC TOTAL TEMP POTENTIAL TOTAL3 TEMPAVG PRESSURE GPRESSURE VOLUME PRESSAVG GPRESSAVG
ENERGY: 700000 0.0000 0.0000 0.0000 0.0000 -12156.3109 1843.8475 0.0000 0.0000 1200.5454 -9111.9179 209.3354 -10312.4634 -9109.7636 209.3354 -84.7173 -11.2733 28430.6460 -84.7173 -11.2733
ENERGY: 800000 0.0000 0.0000 0.0000 0.0000 -11507.6233 1615.4144 0.0000 0.0000 1359.8699 -8532.3390 237.1163 -9892.2089 -8530.1323 239.9748 -474.1648 -392.8286 28588.0100 2.7337 2.7309
TCL: Running 100000 steps at 270 kelvin.
TCL: Setting parameter langevinTemp to 270
TCL: Running for 100000 steps
ETITLE: TS BOND ANGLE DIHED IMPRP ELECT VDW BOUNDARY MISC KINETIC TOTAL TEMP POTENTIAL TOTAL3 TEMPAVG PRESSURE GPRESSURE VOLUME PRESSAVG GPRESSAVG
ENERGY: 800000 0.0000 0.0000 0.0000 0.0000 -11507.6233 1615.4144 0.0000 0.0000 1359.1746 -8533.0343 236.9951 -9892.2089 -8530.7689 236.9951 -474.2844 -394.7081 28588.0100 -474.2844 -394.7081
ENERGY: 900000 0.0000 0.0000 0.0000 0.0000 -11191.5141 1585.0634 0.0000 0.0000 1564.9132 -8041.5375 272.8691 -9606.4507 -8038.7608 270.3007 11.6065 110.6007 29183.6477 3.3553 3.3436
TCL: Running 1000000 steps at 300 kelvin.
TCL: Setting parameter langevinTemp to 300
TCL: Running for 1000000 steps
ETITLE: TS BOND ANGLE DIHED IMPRP ELECT VDW BOUNDARY MISC KINETIC TOTAL TEMP POTENTIAL TOTAL3 TEMPAVG PRESSURE GPRESSURE VOLUME PRESSAVG GPRESSAVG
ENERGY: 900000 0.0000 0.0000 0.0000 0.0000 -11191.5141 1585.0634 0.0000 0.0000 1564.1456 -8042.3051 272.7352 -9606.4507 -8039.7379 272.7352 26.7172 109.7007 29183.6477 26.7172 109.7007
ENERGY: 1100000 0.0000 0.0000 0.0000 0.0000 -10511.5541 1373.3369 0.0000 0.0000 1727.9317 -7410.2855 301.2941 -9138.2172 -7406.0674 300.2160 -158.3683 -35.5263 29729.2648 3.6909 3.6643
ENERGY: 1300000 0.0000 0.0000 0.0000 0.0000 -10460.3589 1356.6882 0.0000 0.0000 1705.0942 -7398.5766 297.3120 -9103.6708 -7395.2016 300.5220 -598.0485 -552.0911 30344.5588 3.6969 3.7945
ENERGY: 1500000 0.0000 0.0000 0.0000 0.0000 -10576.3576 1422.6064 0.0000 0.0000 1745.7758 -7407.9753 304.4055 -9153.7512 -7401.6910 299.6228 98.2503 179.9610 29764.1572 4.1583 4.3719
ENERGY: 1700000 0.0000 0.0000 0.0000 0.0000 -10388.6922 1365.0091 0.0000 0.0000 1764.6110 -7259.0721 307.6898 -9023.6831 -7257.1693 300.2003 -289.9837 -202.1594 30370.9390 3.5403 3.4585
ENERGY: 1900000 0.0000 0.0000 0.0000 0.0000 -10555.9411 1446.1124 0.0000 0.0000 1748.5109 -7361.3178 304.8824 -9109.8287 -7357.1423 300.0119 133.8973 206.8001 30204.4150 3.1238 3.0444
TCL: Exiting due to exit command.
