Info: SIMULATION PARAMETERS:
Info: TIMESTEP               2
Info: NUMBER OF STEPS        0
Info: STEPS PER CYCLE        10
Info: PERIODIC CELL BASIS 1  40.176 0 0
Info: PERIODIC CELL BASIS 2  0 35.411 0
Info: PERIODIC CELL BASIS 3  0 0 30.728
Info: PERIODIC CELL CENTER   0 0 0
Info: WRAPPING WATERS AROUND PERIODIC BOUNDARIES ON OUTPUT.
Info: WRAPPING ALL CLUSTERS AROUND PERIODIC BOUNDARIES ON OUTPUT.
Info: FIRST LDB TIMESTEP     50
Info: LAST LDB TIMESTEP     -1
Info: HOM BACKGROUND SCALING 1
Info: PME BACKGROUND SCALING 1
Info: MIN ATOMS PER PATCH    40
Info: EMPTY PATCH LOAD       40 ATOMS
Info: INITIAL TEMPERATURE    300
Info: CENTER OF MASS MOVING INITIALLY? NO
Info: DIELECTRIC             1
Info: EXCLUDE                SCALED ONE-FOUR
Info: 1-4 ELECTROSTATICS SCALED BY 0.833333
Info: MODIFIED 1-4 VDW PARAMETERS WILL BE USED
Info: DCD FILENAME           mobley_5371840_equil.dcd
Info: DCD FREQUENCY          100000
Info: DCD FIRST STEP         100000
Info: DCD FILE WILL CONTAIN UNIT CELL DATA
Info: XST FILENAME           mobley_5371840_equil.xst
Info: XST FREQUENCY          100000
Info: NO VELOCITY DCD OUTPUT
Info: NO FORCE DCD OUTPUT
Info: OUTPUT FILENAME        mobley_5371840_equil
Info: BINARY OUTPUT FILES WILL BE USED
Info: RESTART FILENAME       mobley_5371840_equil.restart
Info: RESTART FREQUENCY      100000
Info: BINARY RESTART FILES WILL BE USED
Info: CUTOFF                 9
Info: PAIRLIST DISTANCE      11
Info: PAIRLIST SHRINK RATE   0.01
Info: PAIRLIST GROW RATE     0.01
Info: PAIRLIST TRIGGER       0.3
Info: PAIRLISTS PER CYCLE    2
Info: PAIRLISTS ENABLED
Info: MARGIN                 8
Info: HYDROGEN GROUP CUTOFF  2.5
Info: PATCH DIMENSION        21.5
Info: ENERGY OUTPUT STEPS    100000
Info: ENERGY EVALUATION STEPS    100000
Info: OUTPUT ENERGY PRECISION 4
Info: CROSSTERM ENERGY INCLUDED IN DIHEDRAL
Info: TIMING OUTPUT STEPS    1000000
Info: PRESSURE OUTPUT STEPS  100000
Info: FIXED ATOMS ACTIVE
Info: LANGEVIN DYNAMICS ACTIVE
Info: LANGEVIN TEMPERATURE   30
Info: LANGEVIN USING BBK INTEGRATOR
Info: LANGEVIN DAMPING COEFFICIENT IS 1 INVERSE PS
Info: LANGEVIN DYNAMICS APPLIED TO HYDROGENS
Info: LANGEVIN PISTON PRESSURE CONTROL ACTIVE
Info:        TARGET PRESSURE IS 1.01325 BAR
Info:     OSCILLATION PERIOD IS 50 FS
Info:             DECAY TIME IS 25 FS
Info:     PISTON TEMPERATURE IS 300 K
Info:       PRESSURE CONTROL IS GROUP-BASED
Info:    INITIAL STRAIN RATE IS 0 0 0
Info:       CELL FLUCTUATION IS ISOTROPIC
Info: PARTICLE MESH EWALD (PME) ACTIVE
Info: PME TOLERANCE               1e-06
Info: PME EWALD COEFFICIENT       0.348832
Info: PME INTERPOLATION ORDER     4
Info: PME GRID DIMENSIONS         44 36 32
Info: PME MAXIMUM GRID SPACING    1
Info: FULL ELECTROSTATIC EVALUATION FREQUENCY      2
Info: USING VERLET I (r-RESPA) MTS SCHEME.
Info: C1 SPLITTING OF LONG RANGE ELECTROSTATICS
Info: PLACING ATOMS IN PATCHES BY HYDROGEN GROUPS
Info: RIGID BONDS TO HYDROGEN : ALL
Info:         ERROR TOLERANCE : 1e-08
Info:          MAX ITERATIONS : 100
Info: RIGID WATER USING SETTLE ALGORITHM
Info: RANDOM NUMBER SEED     1743764589
Info: USE HYDROGEN BONDS?    NO
Info: Using AMBER format force field!
Info: AMBER PARM FILE        mobley_5371840.prmtop
Info: COORDINATE PDB         mobley_5371840.pdb
Info: Exclusions will be read from PARM file!
Info: SCNB (VDW SCALING)     2
Info: USING ARITHMETIC MEAN TO COMBINE L-J SIGMA PARAMETERS
Info: BINARY COORDINATES     mobley_5371840_min.coor
Info: SUMMARY OF PARAMETERS:
Info: 6 BONDS
Info: 5 ANGLES
Info:   5 HARMONIC
Info:   0 COSINE-BASED
Info: 3 DIHEDRAL
Info: 0 IMPROPER
Info: 0 CROSSTERM
Info: 0 VDW
Info: 21 VDW_PAIRS
Info: 0 NBTHOLE_PAIRS
Info: STRUCTURE SUMMARY:
Info: 2932 ATOMS
Info: 2934 BONDS
Info: 38 ANGLES
Info: 68 DIHEDRALS
Info: 0 IMPROPERS
Info: 0 CROSSTERMS
Info: 3019 EXCLUSIONS
Info: 22 FIXED ATOMS
Info: 2917 RIGID BONDS
Info: 7 RIGID BONDS BETWEEN FIXED ATOMS
Info: 5820 DEGREES OF FREEDOM
Info: 985 HYDROGEN GROUPS
Info: 3 ATOMS IN LARGEST HYDROGEN GROUP
Info: 985 MIGRATION GROUPS
Info: 3 ATOMS IN LARGEST MIGRATION GROUP
Info: 15 HYDROGEN GROUPS WITH ALL ATOMS FIXED
Info: TOTAL MASS = 17694.1 amu
Info: TOTAL CHARGE = -0.000200002 e
Info: MASS DENSITY = 0.672124 g/cm^3
Info: ATOM DENSITY = 0.0670695 atoms/A^3
Info: ADDED 0 IMPLICIT EXCLUSIONS
Info: NONBONDED TABLE R-SQUARED SPACING: 0.0625
Info: NONBONDED TABLE SIZE: 705 POINTS
Info: REMOVING COM VELOCITY -0.178713 0.0122738 -0.126822
TCL: Running for 100000 steps
ETITLE: TS BOND ANGLE DIHED IMPRP ELECT VDW BOUNDARY MISC KINETIC TOTAL TEMP POTENTIAL TOTAL3 TEMPAVG PRESSURE GPRESSURE VOLUME PRESSAVG GPRESSAVG
ENERGY: 0 0.0000 0.0000 0.0000 0.0000 -13526.0298 2369.0879 0.0000 0.0000 1735.3767 -9421.5652 300.0967 -11156.9419 -9421.2333 300.0967 295.2264 330.2551 43715.8755 295.2264 330.2551
ENERGY: 100000 0.0000 0.0000 0.0000 0.0000 -14173.2845 2492.2562 0.0000 0.0000 170.5640 -11510.4643 29.4954 -11681.0283 -11510.1917 30.8605 221.6675 292.1129 28491.9855 3.3131 3.2987
TCL: Running 100000 steps at 60 kelvin.
TCL: Setting parameter langevinTemp to 60
TCL: Running for 100000 steps
ETITLE: TS BOND ANGLE DIHED IMPRP ELECT VDW BOUNDARY MISC KINETIC TOTAL TEMP POTENTIAL TOTAL3 TEMPAVG PRESSURE GPRESSURE VOLUME PRESSAVG GPRESSAVG
ENERGY: 100000 0.0000 0.0000 0.0000 0.0000 -14173.2845 2492.2562 0.0000 0.0000 170.4777 -11510.5505 29.4805 -11681.0283 -11510.2729 29.4805 247.1976 292.0558 28491.9855 247.1976 292.0558
ENERGY: 200000 0.0000 0.0000 0.0000 0.0000 -14088.6001 2494.6756 0.0000 0.0000 347.9188 -11246.0056 60.1652 -11593.9244 -11245.0033 60.0423 682.4426 748.7580 28384.9035 3.4760 3.4745
TCL: Running 100000 steps at 90 kelvin.
TCL: Setting parameter langevinTemp to 90
TCL: Running for 100000 steps
ETITLE: TS BOND ANGLE DIHED IMPRP ELECT VDW BOUNDARY MISC KINETIC TOTAL TEMP POTENTIAL TOTAL3 TEMPAVG PRESSURE GPRESSURE VOLUME PRESSAVG GPRESSAVG
ENERGY: 200000 0.0000 0.0000 0.0000 0.0000 -14088.6001 2494.6756 0.0000 0.0000 347.7401 -11246.1844 60.1343 -11593.9244 -11245.4386 60.1343 703.5871 748.8193 28384.9035 703.5871 748.8193
ENERGY: 300000 0.0000 0.0000 0.0000 0.0000 -13785.2337 2274.0217 0.0000 0.0000 515.8977 -10995.3143 89.2136 -11511.2120 -10993.8350 89.8136 -861.5431 -802.7567 28816.5797 4.1612 4.2459
TCL: Running 100000 steps at 120 kelvin.
TCL: Setting parameter langevinTemp to 120
TCL: Running for 100000 steps
ETITLE: TS BOND ANGLE DIHED IMPRP ELECT VDW BOUNDARY MISC KINETIC TOTAL TEMP POTENTIAL TOTAL3 TEMPAVG PRESSURE GPRESSURE VOLUME PRESSAVG GPRESSAVG
ENERGY: 300000 0.0000 0.0000 0.0000 0.0000 -13785.2337 2274.0217 0.0000 0.0000 515.6492 -10995.5628 89.1706 -11511.2120 -10994.3536 89.1706 -854.2159 -802.8784 28816.5797 -854.2159 -802.8784
ENERGY: 400000 0.0000 0.0000 0.0000 0.0000 -13697.0112 2281.0779 0.0000 0.0000 700.3550 -10715.5784 121.1116 -11415.9334 -10714.1128 120.0690 -311.2158 -253.3290 28716.3402 4.7357 4.7567
TCL: Running 100000 steps at 150 kelvin.
TCL: Setting parameter langevinTemp to 150
TCL: Running for 100000 steps
ETITLE: TS BOND ANGLE DIHED IMPRP ELECT VDW BOUNDARY MISC KINETIC TOTAL TEMP POTENTIAL TOTAL3 TEMPAVG PRESSURE GPRESSURE VOLUME PRESSAVG GPRESSAVG
ENERGY: 400000 0.0000 0.0000 0.0000 0.0000 -13697.0112 2281.0779 0.0000 0.0000 700.0129 -10715.9204 121.0524 -11415.9334 -10714.3564 121.0524 -306.4600 -253.8780 28716.3402 -306.4600 -253.8780
ENERGY: 500000 0.0000 0.0000 0.0000 0.0000 -13501.2419 2285.6194 0.0000 0.0000 856.0266 -10359.5959 148.0317 -11215.6225 -10357.9431 150.4610 411.5483 466.2427 28740.0284 4.5070 4.4611
TCL: Running 100000 steps at 180 kelvin.
TCL: Setting parameter langevinTemp to 180
TCL: Running for 100000 steps
ETITLE: TS BOND ANGLE DIHED IMPRP ELECT VDW BOUNDARY MISC KINETIC TOTAL TEMP POTENTIAL TOTAL3 TEMPAVG PRESSURE GPRESSURE VOLUME PRESSAVG GPRESSAVG
ENERGY: 500000 0.0000 0.0000 0.0000 0.0000 -13501.2419 2285.6194 0.0000 0.0000 855.5762 -10360.0463 147.9538 -11215.6225 -10358.5344 147.9538 415.6666 465.3287 28740.0284 415.6666 465.3287
ENERGY: 600000 0.0000 0.0000 0.0000 0.0000 -12917.6970 2044.4455 0.0000 0.0000 1051.3281 -9821.9235 181.8049 -10873.2516 -9820.9671 179.5114 -58.0984 -32.1318 28713.8606 4.4207 4.2625
TCL: Running 100000 steps at 210 kelvin.
TCL: Setting parameter langevinTemp to 210
TCL: Running for 100000 steps
ETITLE: TS BOND ANGLE DIHED IMPRP ELECT VDW BOUNDARY MISC KINETIC TOTAL TEMP POTENTIAL TOTAL3 TEMPAVG PRESSURE GPRESSURE VOLUME PRESSAVG GPRESSAVG
ENERGY: 600000 0.0000 0.0000 0.0000 0.0000 -12917.6970 2044.4455 0.0000 0.0000 1050.8222 -9822.4294 181.7174 -10873.2516 -9820.4822 181.7174 -103.2187 -32.8936 28713.8606 -103.2187 -32.8936
ENERGY: 700000 0.0000 0.0000 0.0000 0.0000 -12194.8030 1778.2430 0.0000 0.0000 1201.6063 -9214.9536 207.7924 -10416.5599 -9210.8083 210.1765 -457.7296 -415.3800 28395.6683 4.9124 4.8594
TCL: Running 100000 steps at 240 kelvin.
TCL: Setting parameter langevinTemp to 240
TCL: Running for 100000 steps
ETITLE: TS BOND ANGLE DIHED IMPRP ELECT VDW BOUNDARY MISC KINETIC TOTAL TEMP POTENTIAL TOTAL3 TEMPAVG PRESSURE GPRESSURE VOLUME PRESSAVG GPRESSAVG
ENERGY: 700000 0.0000 0.0000 0.0000 0.0000 -12194.8030 1778.2430 0.0000 0.0000 1201.0422 -9215.5177 207.6948 -10416.5599 -9213.6425 207.6948 -480.3063 -415.2335 28395.6683 -480.3063 -415.2335
ENERGY: 800000 0.0000 0.0000 0.0000 0.0000 -11734.6955 1690.5447 0.0000 0.0000 1411.7792 -8632.3716 244.1373 -10044.1508 -8629.3307 240.4927 200.7988 235.1741 28561.7830 2.1529 2.2627
TCL: Running 100000 steps at 270 kelvin.
TCL: Setting parameter langevinTemp to 270
TCL: Running for 100000 steps
ETITLE: TS BOND ANGLE DIHED IMPRP ELECT VDW BOUNDARY MISC KINETIC TOTAL TEMP POTENTIAL TOTAL3 TEMPAVG PRESSURE GPRESSURE VOLUME PRESSAVG GPRESSAVG
ENERGY: 800000 0.0000 0.0000 0.0000 0.0000 -11734.6955 1690.5447 0.0000 0.0000 1411.0526 -8633.0982 244.0117 -10044.1508 -8631.1528 244.0117 158.1904 235.0350 28561.7830 158.1904 235.0350
ENERGY: 900000 0.0000 0.0000 0.0000 0.0000 -11210.3571 1545.5187 0.0000 0.0000 1578.9289 -8085.9095 273.0423 -9664.8384 -8081.0523 270.0354 132.9343 212.5563 29165.5380 3.0024 3.2894
TCL: Running 1000000 steps at 300 kelvin.
TCL: Setting parameter langevinTemp to 300
TCL: Running for 1000000 steps
ETITLE: TS BOND ANGLE DIHED IMPRP ELECT VDW BOUNDARY MISC KINETIC TOTAL TEMP POTENTIAL TOTAL3 TEMPAVG PRESSURE GPRESSURE VOLUME PRESSAVG GPRESSAVG
ENERGY: 900000 0.0000 0.0000 0.0000 0.0000 -11210.3571 1545.5187 0.0000 0.0000 1578.1298 -8086.7086 272.9041 -9664.8384 -8084.2828 272.9041 130.1779 213.5680 29165.5380 130.1779 213.5680
ENERGY: 1100000 0.0000 0.0000 0.0000 0.0000 -10679.8336 1484.9508 0.0000 0.0000 1753.7260 -7441.1568 303.2698 -9194.8828 -7441.2064 301.0466 458.3151 566.9962 30387.3957 3.1781 3.2177
ENERGY: 1300000 0.0000 0.0000 0.0000 0.0000 -10562.8285 1392.9672 0.0000 0.0000 1780.7510 -7389.1103 307.9432 -9169.8613 -7385.2829 300.8739 -84.9544 -15.7294 30160.9244 3.2233 3.3406
ENERGY: 1500000 0.0000 0.0000 0.0000 0.0000 -10625.9945 1402.0490 0.0000 0.0000 1739.2374 -7484.7081 300.7643 -9223.9454 -7482.3488 300.8044 -105.3965 -48.8303 30302.0619 2.1618 2.2164
ENERGY: 1700000 0.0000 0.0000 0.0000 0.0000 -10749.6018 1477.7325 0.0000 0.0000 1690.6584 -7581.2108 292.3636 -9271.8692 -7576.1771 300.1680 132.6501 215.2271 30200.6495 3.4072 3.2466
ENERGY: 1900000 0.0000 0.0000 0.0000 0.0000 -10493.3563 1370.9571 0.0000 0.0000 1739.2655 -7383.1337 300.7691 -9122.3992 -7381.5067 299.8148 130.4372 238.3478 29776.3185 3.2285 3.1821
TCL: Exiting due to exit command.
