Info: SIMULATION PARAMETERS:
Info: TIMESTEP               2
Info: NUMBER OF STEPS        0
Info: STEPS PER CYCLE        10
Info: PERIODIC CELL BASIS 1  37.133 0 0
Info: PERIODIC CELL BASIS 2  0 35.779 0
Info: PERIODIC CELL BASIS 3  0 0 33.27
Info: PERIODIC CELL CENTER   0 0 0
Info: WRAPPING WATERS AROUND PERIODIC BOUNDARIES ON OUTPUT.
Info: WRAPPING ALL CLUSTERS AROUND PERIODIC BOUNDARIES ON OUTPUT.
Info: FIRST LDB TIMESTEP     50
Info: LAST LDB TIMESTEP     -1
Info: HOM BACKGROUND SCALING 1
Info: PME BACKGROUND SCALING 1
Info: MIN ATOMS PER PATCH    40
Info: EMPTY PATCH LOAD       40 ATOMS
Info: INITIAL TEMPERATURE    300
Info: CENTER OF MASS MOVING INITIALLY? NO
Info: DIELECTRIC             1
Info: EXCLUDE                SCALED ONE-FOUR
Info: 1-4 ELECTROSTATICS SCALED BY 0.833333
Info: MODIFIED 1-4 VDW PARAMETERS WILL BE USED
Info: DCD FILENAME           mobley_5977084_equil.dcd
Info: DCD FREQUENCY          100000
Info: DCD FIRST STEP         100000
Info: DCD FILE WILL CONTAIN UNIT CELL DATA
Info: XST FILENAME           mobley_5977084_equil.xst
Info: XST FREQUENCY          100000
Info: NO VELOCITY DCD OUTPUT
Info: NO FORCE DCD OUTPUT
Info: OUTPUT FILENAME        mobley_5977084_equil
Info: BINARY OUTPUT FILES WILL BE USED
Info: RESTART FILENAME       mobley_5977084_equil.restart
Info: RESTART FREQUENCY      100000
Info: BINARY RESTART FILES WILL BE USED
Info: CUTOFF                 9
Info: PAIRLIST DISTANCE      11
Info: PAIRLIST SHRINK RATE   0.01
Info: PAIRLIST GROW RATE     0.01
Info: PAIRLIST TRIGGER       0.3
Info: PAIRLISTS PER CYCLE    2
Info: PAIRLISTS ENABLED
Info: MARGIN                 8
Info: HYDROGEN GROUP CUTOFF  2.5
Info: PATCH DIMENSION        21.5
Info: ENERGY OUTPUT STEPS    100000
Info: ENERGY EVALUATION STEPS    100000
Info: OUTPUT ENERGY PRECISION 4
Info: CROSSTERM ENERGY INCLUDED IN DIHEDRAL
Info: TIMING OUTPUT STEPS    1000000
Info: PRESSURE OUTPUT STEPS  100000
Info: FIXED ATOMS ACTIVE
Info: LANGEVIN DYNAMICS ACTIVE
Info: LANGEVIN TEMPERATURE   30
Info: LANGEVIN USING BBK INTEGRATOR
Info: LANGEVIN DAMPING COEFFICIENT IS 1 INVERSE PS
Info: LANGEVIN DYNAMICS APPLIED TO HYDROGENS
Info: LANGEVIN PISTON PRESSURE CONTROL ACTIVE
Info:        TARGET PRESSURE IS 1.01325 BAR
Info:     OSCILLATION PERIOD IS 50 FS
Info:             DECAY TIME IS 25 FS
Info:     PISTON TEMPERATURE IS 300 K
Info:       PRESSURE CONTROL IS GROUP-BASED
Info:    INITIAL STRAIN RATE IS 0 0 0
Info:       CELL FLUCTUATION IS ISOTROPIC
Info: PARTICLE MESH EWALD (PME) ACTIVE
Info: PME TOLERANCE               1e-06
Info: PME EWALD COEFFICIENT       0.348832
Info: PME INTERPOLATION ORDER     4
Info: PME GRID DIMENSIONS         40 36 36
Info: PME MAXIMUM GRID SPACING    1
Info: FULL ELECTROSTATIC EVALUATION FREQUENCY      2
Info: USING VERLET I (r-RESPA) MTS SCHEME.
Info: C1 SPLITTING OF LONG RANGE ELECTROSTATICS
Info: PLACING ATOMS IN PATCHES BY HYDROGEN GROUPS
Info: RIGID BONDS TO HYDROGEN : ALL
Info:         ERROR TOLERANCE : 1e-08
Info:          MAX ITERATIONS : 100
Info: RIGID WATER USING SETTLE ALGORITHM
Info: RANDOM NUMBER SEED     1743731176
Info: USE HYDROGEN BONDS?    NO
Info: Using AMBER format force field!
Info: AMBER PARM FILE        mobley_5977084.prmtop
Info: COORDINATE PDB         mobley_5977084.pdb
Info: Exclusions will be read from PARM file!
Info: SCNB (VDW SCALING)     2
Info: USING ARITHMETIC MEAN TO COMBINE L-J SIGMA PARAMETERS
Info: BINARY COORDINATES     mobley_5977084_min.coor
Info: SUMMARY OF PARAMETERS:
Info: 8 BONDS
Info: 9 ANGLES
Info:   9 HARMONIC
Info:   0 COSINE-BASED
Info: 4 DIHEDRAL
Info: 0 IMPROPER
Info: 0 CROSSTERM
Info: 0 VDW
Info: 36 VDW_PAIRS
Info: 0 NBTHOLE_PAIRS
Info: STRUCTURE SUMMARY:
Info: 2936 ATOMS
Info: 2936 BONDS
Info: 22 ANGLES
Info: 31 DIHEDRALS
Info: 0 IMPROPERS
Info: 0 CROSSTERMS
Info: 2981 EXCLUSIONS
Info: 14 FIXED ATOMS
Info: 2929 RIGID BONDS
Info: 7 RIGID BONDS BETWEEN FIXED ATOMS
Info: 5844 DEGREES OF FREEDOM
Info: 981 HYDROGEN GROUPS
Info: 4 ATOMS IN LARGEST HYDROGEN GROUP
Info: 981 MIGRATION GROUPS
Info: 4 ATOMS IN LARGEST MIGRATION GROUP
Info: 7 HYDROGEN GROUPS WITH ALL ATOMS FIXED
Info: TOTAL MASS = 17640.7 amu
Info: TOTAL CHARGE = 0.000100007 e
Info: MASS DENSITY = 0.662726 g/cm^3
Info: ATOM DENSITY = 0.0664225 atoms/A^3
Info: ADDED 0 IMPLICIT EXCLUSIONS
Info: NONBONDED TABLE R-SQUARED SPACING: 0.0625
Info: NONBONDED TABLE SIZE: 705 POINTS
Info: REMOVING COM VELOCITY -0.153957 0.00559837 -0.0380057
TCL: Running for 100000 steps
ETITLE: TS BOND ANGLE DIHED IMPRP ELECT VDW BOUNDARY MISC KINETIC TOTAL TEMP POTENTIAL TOTAL3 TEMPAVG PRESSURE GPRESSURE VOLUME PRESSAVG GPRESSAVG
ENERGY: 0 0.0000 0.0000 0.0000 0.0000 -13644.6477 2396.1466 0.0000 0.0000 1662.4289 -9586.0721 286.3013 -11248.5010 -9585.7407 286.3013 358.3549 388.5712 44201.9101 358.3549 388.5712
ENERGY: 100000 0.0000 0.0000 0.0000 0.0000 -14316.5400 2545.0700 0.0000 0.0000 174.9280 -11596.5420 30.1259 -11771.4700 -11596.1101 30.8935 867.8277 902.3083 28249.5036 5.0322 5.0100
TCL: Running 100000 steps at 60 kelvin.
TCL: Setting parameter langevinTemp to 60
TCL: Running for 100000 steps
ETITLE: TS BOND ANGLE DIHED IMPRP ELECT VDW BOUNDARY MISC KINETIC TOTAL TEMP POTENTIAL TOTAL3 TEMPAVG PRESSURE GPRESSURE VOLUME PRESSAVG GPRESSAVG
ENERGY: 100000 0.0000 0.0000 0.0000 0.0000 -14316.5400 2545.0700 0.0000 0.0000 174.8428 -11596.6273 30.1112 -11771.4700 -11596.2313 30.1112 860.7401 902.4409 28249.5036 860.7401 902.4409
ENERGY: 200000 0.0000 0.0000 0.0000 0.0000 -14110.7867 2419.2310 0.0000 0.0000 358.5071 -11333.0486 61.7416 -11691.5557 -11331.7519 59.9100 72.6435 121.1161 28476.8929 4.6975 4.7017
TCL: Running 100000 steps at 90 kelvin.
TCL: Setting parameter langevinTemp to 90
TCL: Running for 100000 steps
ETITLE: TS BOND ANGLE DIHED IMPRP ELECT VDW BOUNDARY MISC KINETIC TOTAL TEMP POTENTIAL TOTAL3 TEMPAVG PRESSURE GPRESSURE VOLUME PRESSAVG GPRESSAVG
ENERGY: 200000 0.0000 0.0000 0.0000 0.0000 -14110.7867 2419.2310 0.0000 0.0000 358.3293 -11333.2264 61.7110 -11691.5557 -11332.3811 61.7110 77.2876 121.2470 28476.8929 77.2876 121.2470
ENERGY: 300000 0.0000 0.0000 0.0000 0.0000 -13982.7583 2399.3883 0.0000 0.0000 509.5549 -11073.8150 87.7549 -11583.3700 -11073.1935 89.8251 237.5856 283.6334 28530.6151 4.2140 4.2017
TCL: Running 100000 steps at 120 kelvin.
TCL: Setting parameter langevinTemp to 120
TCL: Running for 100000 steps
ETITLE: TS BOND ANGLE DIHED IMPRP ELECT VDW BOUNDARY MISC KINETIC TOTAL TEMP POTENTIAL TOTAL3 TEMPAVG PRESSURE GPRESSURE VOLUME PRESSAVG GPRESSAVG
ENERGY: 300000 0.0000 0.0000 0.0000 0.0000 -13982.7583 2399.3883 0.0000 0.0000 509.2846 -11074.0854 87.7083 -11583.3700 -11072.9708 87.7083 231.6265 282.9987 28530.6151 231.6265 282.9987
ENERGY: 400000 0.0000 0.0000 0.0000 0.0000 -13806.0165 2384.0983 0.0000 0.0000 693.3698 -10728.5485 119.4112 -11421.9183 -10726.1532 119.7520 469.2746 567.2665 28860.2228 3.3461 3.1160
TCL: Running 100000 steps at 150 kelvin.
TCL: Setting parameter langevinTemp to 150
TCL: Running for 100000 steps
ETITLE: TS BOND ANGLE DIHED IMPRP ELECT VDW BOUNDARY MISC KINETIC TOTAL TEMP POTENTIAL TOTAL3 TEMPAVG PRESSURE GPRESSURE VOLUME PRESSAVG GPRESSAVG
ENERGY: 400000 0.0000 0.0000 0.0000 0.0000 -13806.0165 2384.0983 0.0000 0.0000 693.0126 -10728.9057 119.3497 -11421.9183 -10727.4908 119.3497 521.8101 567.6443 28860.2228 521.8101 567.6443
ENERGY: 500000 0.0000 0.0000 0.0000 0.0000 -13551.6658 2266.2358 0.0000 0.0000 853.2279 -10432.2021 146.9418 -11285.4300 -10430.7281 150.0812 135.6010 165.1808 28763.9619 3.5884 3.5118
TCL: Running 100000 steps at 180 kelvin.
TCL: Setting parameter langevinTemp to 180
TCL: Running for 100000 steps
ETITLE: TS BOND ANGLE DIHED IMPRP ELECT VDW BOUNDARY MISC KINETIC TOTAL TEMP POTENTIAL TOTAL3 TEMPAVG PRESSURE GPRESSURE VOLUME PRESSAVG GPRESSAVG
ENERGY: 500000 0.0000 0.0000 0.0000 0.0000 -13551.6658 2266.2358 0.0000 0.0000 852.8149 -10432.6151 146.8706 -11285.4300 -10430.9851 146.8706 109.6073 163.7567 28763.9619 109.6073 163.7567
ENERGY: 600000 0.0000 0.0000 0.0000 0.0000 -13136.6673 2123.1060 0.0000 0.0000 1049.5191 -9964.0423 180.7468 -11013.5613 -9962.2256 179.7722 -345.9303 -252.6170 29282.8772 4.1671 4.1115
TCL: Running 100000 steps at 210 kelvin.
TCL: Setting parameter langevinTemp to 210
TCL: Running for 100000 steps
ETITLE: TS BOND ANGLE DIHED IMPRP ELECT VDW BOUNDARY MISC KINETIC TOTAL TEMP POTENTIAL TOTAL3 TEMPAVG PRESSURE GPRESSURE VOLUME PRESSAVG GPRESSAVG
ENERGY: 600000 0.0000 0.0000 0.0000 0.0000 -13136.6673 2123.1060 0.0000 0.0000 1049.0061 -9964.5552 180.6584 -11013.5613 -9962.2246 180.6584 -316.8018 -253.0329 29282.8772 -316.8018 -253.0329
ENERGY: 700000 0.0000 0.0000 0.0000 0.0000 -12448.4380 1916.2202 0.0000 0.0000 1187.4903 -9344.7275 204.5080 -10532.2178 -9341.9485 210.0473 -29.0180 94.0149 28862.0319 2.9572 2.9393
TCL: Running 100000 steps at 240 kelvin.
TCL: Setting parameter langevinTemp to 240
TCL: Running for 100000 steps
ETITLE: TS BOND ANGLE DIHED IMPRP ELECT VDW BOUNDARY MISC KINETIC TOTAL TEMP POTENTIAL TOTAL3 TEMPAVG PRESSURE GPRESSURE VOLUME PRESSAVG GPRESSAVG
ENERGY: 700000 0.0000 0.0000 0.0000 0.0000 -12448.4380 1916.2202 0.0000 0.0000 1186.8934 -9345.3243 204.4052 -10532.2178 -9343.6483 204.4052 12.0273 95.0077 28862.0319 12.0273 95.0077
ENERGY: 800000 0.0000 0.0000 0.0000 0.0000 -11806.8914 1725.9068 0.0000 0.0000 1393.7508 -8687.2338 240.0299 -10080.9845 -8684.2657 240.1038 54.3358 109.1849 29128.6297 3.9862 4.1177
TCL: Running 100000 steps at 270 kelvin.
TCL: Setting parameter langevinTemp to 270
TCL: Running for 100000 steps
ETITLE: TS BOND ANGLE DIHED IMPRP ELECT VDW BOUNDARY MISC KINETIC TOTAL TEMP POTENTIAL TOTAL3 TEMPAVG PRESSURE GPRESSURE VOLUME PRESSAVG GPRESSAVG
ENERGY: 800000 0.0000 0.0000 0.0000 0.0000 -11806.8914 1725.9068 0.0000 0.0000 1393.0396 -8687.9450 239.9074 -10080.9845 -8684.9129 239.9074 34.0821 108.7414 29128.6297 34.0821 108.7414
ENERGY: 900000 0.0000 0.0000 0.0000 0.0000 -11081.6036 1456.4066 0.0000 0.0000 1574.9555 -8050.2414 271.2367 -9625.1970 -8046.1126 269.8403 -835.2242 -747.7387 29559.6055 1.7012 1.4686
TCL: Running 1000000 steps at 300 kelvin.
TCL: Setting parameter langevinTemp to 300
TCL: Running for 1000000 steps
ETITLE: TS BOND ANGLE DIHED IMPRP ELECT VDW BOUNDARY MISC KINETIC TOTAL TEMP POTENTIAL TOTAL3 TEMPAVG PRESSURE GPRESSURE VOLUME PRESSAVG GPRESSAVG
ENERGY: 900000 0.0000 0.0000 0.0000 0.0000 -11081.6036 1456.4066 0.0000 0.0000 1574.1776 -8051.0193 271.1027 -9625.1970 -8049.0518 271.1027 -822.5357 -745.0345 29559.6055 -822.5357 -745.0345
ENERGY: 1100000 0.0000 0.0000 0.0000 0.0000 -10722.8892 1417.4040 0.0000 0.0000 1773.0618 -7532.4234 305.3543 -9305.4851 -7530.4374 300.1573 68.7159 142.1724 29897.7391 3.9403 4.0448
ENERGY: 1300000 0.0000 0.0000 0.0000 0.0000 -10609.1030 1443.7792 0.0000 0.0000 1703.1749 -7462.1489 293.3185 -9165.3239 -7457.5456 300.2358 483.7423 514.7432 30009.1982 1.5998 1.4972
ENERGY: 1500000 0.0000 0.0000 0.0000 0.0000 -10718.3468 1450.1691 0.0000 0.0000 1758.4933 -7509.6844 302.8453 -9268.1777 -7508.0670 300.4172 234.3454 369.1731 30032.6403 2.9795 3.2656
ENERGY: 1700000 0.0000 0.0000 0.0000 0.0000 -10749.9871 1449.8818 0.0000 0.0000 1797.9596 -7502.1456 309.6422 -9300.1053 -7502.1139 299.4366 336.9505 371.1064 29962.1609 3.5511 3.7418
ENERGY: 1900000 0.0000 0.0000 0.0000 0.0000 -10755.2052 1412.7917 0.0000 0.0000 1725.1522 -7617.2614 297.1034 -9342.4136 -7615.2488 300.1490 3.4309 17.6893 29735.6265 4.5687 4.5694
TCL: Exiting due to exit command.
