Info: SIMULATION PARAMETERS:
Info: TIMESTEP               2
Info: NUMBER OF STEPS        0
Info: STEPS PER CYCLE        10
Info: PERIODIC CELL BASIS 1  36.281 0 0
Info: PERIODIC CELL BASIS 2  0 35.411 0
Info: PERIODIC CELL BASIS 3  0 0 34.68
Info: PERIODIC CELL CENTER   0 0 0
Info: WRAPPING WATERS AROUND PERIODIC BOUNDARIES ON OUTPUT.
Info: WRAPPING ALL CLUSTERS AROUND PERIODIC BOUNDARIES ON OUTPUT.
Info: FIRST LDB TIMESTEP     50
Info: LAST LDB TIMESTEP     -1
Info: HOM BACKGROUND SCALING 1
Info: PME BACKGROUND SCALING 1
Info: MIN ATOMS PER PATCH    40
Info: EMPTY PATCH LOAD       40 ATOMS
Info: INITIAL TEMPERATURE    300
Info: CENTER OF MASS MOVING INITIALLY? NO
Info: DIELECTRIC             1
Info: EXCLUDE                SCALED ONE-FOUR
Info: 1-4 ELECTROSTATICS SCALED BY 0.833333
Info: MODIFIED 1-4 VDW PARAMETERS WILL BE USED
Info: DCD FILENAME           mobley_967099_equil.dcd
Info: DCD FREQUENCY          100000
Info: DCD FIRST STEP         100000
Info: DCD FILE WILL CONTAIN UNIT CELL DATA
Info: XST FILENAME           mobley_967099_equil.xst
Info: XST FREQUENCY          100000
Info: NO VELOCITY DCD OUTPUT
Info: NO FORCE DCD OUTPUT
Info: OUTPUT FILENAME        mobley_967099_equil
Info: BINARY OUTPUT FILES WILL BE USED
Info: RESTART FILENAME       mobley_967099_equil.restart
Info: RESTART FREQUENCY      100000
Info: BINARY RESTART FILES WILL BE USED
Info: CUTOFF                 9
Info: PAIRLIST DISTANCE      11
Info: PAIRLIST SHRINK RATE   0.01
Info: PAIRLIST GROW RATE     0.01
Info: PAIRLIST TRIGGER       0.3
Info: PAIRLISTS PER CYCLE    2
Info: PAIRLISTS ENABLED
Info: MARGIN                 8
Info: HYDROGEN GROUP CUTOFF  2.5
Info: PATCH DIMENSION        21.5
Info: ENERGY OUTPUT STEPS    100000
Info: ENERGY EVALUATION STEPS    100000
Info: OUTPUT ENERGY PRECISION 4
Info: CROSSTERM ENERGY INCLUDED IN DIHEDRAL
Info: TIMING OUTPUT STEPS    1000000
Info: PRESSURE OUTPUT STEPS  100000
Info: FIXED ATOMS ACTIVE
Info: LANGEVIN DYNAMICS ACTIVE
Info: LANGEVIN TEMPERATURE   30
Info: LANGEVIN USING BBK INTEGRATOR
Info: LANGEVIN DAMPING COEFFICIENT IS 1 INVERSE PS
Info: LANGEVIN DYNAMICS APPLIED TO HYDROGENS
Info: LANGEVIN PISTON PRESSURE CONTROL ACTIVE
Info:        TARGET PRESSURE IS 1.01325 BAR
Info:     OSCILLATION PERIOD IS 50 FS
Info:             DECAY TIME IS 25 FS
Info:     PISTON TEMPERATURE IS 300 K
Info:       PRESSURE CONTROL IS GROUP-BASED
Info:    INITIAL STRAIN RATE IS 0 0 0
Info:       CELL FLUCTUATION IS ISOTROPIC
Info: PARTICLE MESH EWALD (PME) ACTIVE
Info: PME TOLERANCE               1e-06
Info: PME EWALD COEFFICIENT       0.348832
Info: PME INTERPOLATION ORDER     4
Info: PME GRID DIMENSIONS         40 36 36
Info: PME MAXIMUM GRID SPACING    1
Info: FULL ELECTROSTATIC EVALUATION FREQUENCY      2
Info: USING VERLET I (r-RESPA) MTS SCHEME.
Info: C1 SPLITTING OF LONG RANGE ELECTROSTATICS
Info: PLACING ATOMS IN PATCHES BY HYDROGEN GROUPS
Info: RIGID BONDS TO HYDROGEN : ALL
Info:         ERROR TOLERANCE : 1e-08
Info:          MAX ITERATIONS : 100
Info: RIGID WATER USING SETTLE ALGORITHM
Info: RANDOM NUMBER SEED     1743901021
Info: USE HYDROGEN BONDS?    NO
Info: Using AMBER format force field!
Info: AMBER PARM FILE        mobley_967099.prmtop
Info: COORDINATE PDB         mobley_967099.pdb
Info: Exclusions will be read from PARM file!
Info: SCNB (VDW SCALING)     2
Info: USING ARITHMETIC MEAN TO COMBINE L-J SIGMA PARAMETERS
Info: BINARY COORDINATES     mobley_967099_min.coor
Info: SUMMARY OF PARAMETERS:
Info: 7 BONDS
Info: 8 ANGLES
Info:   8 HARMONIC
Info:   0 COSINE-BASED
Info: 3 DIHEDRAL
Info: 0 IMPROPER
Info: 0 CROSSTERM
Info: 0 VDW
Info: 28 VDW_PAIRS
Info: 0 NBTHOLE_PAIRS
Info: STRUCTURE SUMMARY:
Info: 2932 ATOMS
Info: 2931 BONDS
Info: 21 ANGLES
Info: 24 DIHEDRALS
Info: 0 IMPROPERS
Info: 0 CROSSTERMS
Info: 2976 EXCLUSIONS
Info: 13 FIXED ATOMS
Info: 2926 RIGID BONDS
Info: 7 RIGID BONDS BETWEEN FIXED ATOMS
Info: 5838 DEGREES OF FREEDOM
Info: 979 HYDROGEN GROUPS
Info: 4 ATOMS IN LARGEST HYDROGEN GROUP
Info: 979 MIGRATION GROUPS
Info: 4 ATOMS IN LARGEST MIGRATION GROUP
Info: 6 HYDROGEN GROUPS WITH ALL ATOMS FIXED
Info: TOTAL MASS = 17618.7 amu
Info: TOTAL CHARGE = 0.000400003 e
Info: MASS DENSITY = 0.656653 g/cm^3
Info: ATOM DENSITY = 0.0658063 atoms/A^3
Info: ADDED 0 IMPLICIT EXCLUSIONS
Info: NONBONDED TABLE R-SQUARED SPACING: 0.0625
Info: NONBONDED TABLE SIZE: 705 POINTS
Info: REMOVING COM VELOCITY 0.00173068 0.0240534 0.0794297
TCL: Running for 100000 steps
ETITLE: TS BOND ANGLE DIHED IMPRP ELECT VDW BOUNDARY MISC KINETIC TOTAL TEMP POTENTIAL TOTAL3 TEMPAVG PRESSURE GPRESSURE VOLUME PRESSAVG GPRESSAVG
ENERGY: 0 0.0000 0.0000 0.0000 0.0000 -13610.3814 2429.0215 0.0000 0.0000 1723.9068 -9457.4532 297.1940 -11181.3599 -9457.1165 297.1940 658.1047 689.8342 44555.0083 658.1047 689.8342
ENERGY: 100000 0.0000 0.0000 0.0000 0.0000 -14140.4737 2462.8847 0.0000 0.0000 179.9451 -11497.6439 31.0218 -11677.5890 -11497.1300 30.8960 54.5068 118.8015 28721.0263 5.2722 5.2746
TCL: Running 100000 steps at 60 kelvin.
TCL: Setting parameter langevinTemp to 60
TCL: Running for 100000 steps
ETITLE: TS BOND ANGLE DIHED IMPRP ELECT VDW BOUNDARY MISC KINETIC TOTAL TEMP POTENTIAL TOTAL3 TEMPAVG PRESSURE GPRESSURE VOLUME PRESSAVG GPRESSAVG
ENERGY: 100000 0.0000 0.0000 0.0000 0.0000 -14140.4737 2462.8847 0.0000 0.0000 179.8575 -11497.7316 31.0066 -11677.5890 -11497.3777 31.0066 61.7595 119.0230 28721.0263 61.7595 119.0230
ENERGY: 200000 0.0000 0.0000 0.0000 0.0000 -14026.3023 2415.7809 0.0000 0.0000 349.0600 -11261.4614 60.1764 -11610.5213 -11260.4114 59.8780 84.0937 135.1822 28567.5842 4.1062 4.1284
TCL: Running 100000 steps at 90 kelvin.
TCL: Setting parameter langevinTemp to 90
TCL: Running for 100000 steps
ETITLE: TS BOND ANGLE DIHED IMPRP ELECT VDW BOUNDARY MISC KINETIC TOTAL TEMP POTENTIAL TOTAL3 TEMPAVG PRESSURE GPRESSURE VOLUME PRESSAVG GPRESSAVG
ENERGY: 200000 0.0000 0.0000 0.0000 0.0000 -14026.3023 2415.7809 0.0000 0.0000 348.8869 -11261.6345 60.1466 -11610.5213 -11260.8850 60.1466 83.0990 135.6698 28567.5842 83.0990 135.6698
ENERGY: 300000 0.0000 0.0000 0.0000 0.0000 -13758.4350 2262.4049 0.0000 0.0000 525.2342 -10970.7959 90.5481 -11496.0301 -10969.7904 89.9853 -862.1159 -781.5362 28862.1389 3.3442 3.3747
TCL: Running 100000 steps at 120 kelvin.
TCL: Setting parameter langevinTemp to 120
TCL: Running for 100000 steps
ETITLE: TS BOND ANGLE DIHED IMPRP ELECT VDW BOUNDARY MISC KINETIC TOTAL TEMP POTENTIAL TOTAL3 TEMPAVG PRESSURE GPRESSURE VOLUME PRESSAVG GPRESSAVG
ENERGY: 300000 0.0000 0.0000 0.0000 0.0000 -13758.4350 2262.4049 0.0000 0.0000 524.9698 -10971.0603 90.5025 -11496.0301 -10969.6202 90.5025 -844.0850 -782.3180 28862.1389 -844.0850 -782.3180
ENERGY: 400000 0.0000 0.0000 0.0000 0.0000 -13704.4523 2306.6110 0.0000 0.0000 674.0539 -10723.7875 116.2039 -11397.8413 -10721.7602 119.6018 -201.0053 -139.6294 28852.8708 4.4099 4.3294
TCL: Running 100000 steps at 150 kelvin.
TCL: Setting parameter langevinTemp to 150
TCL: Running for 100000 steps
ETITLE: TS BOND ANGLE DIHED IMPRP ELECT VDW BOUNDARY MISC KINETIC TOTAL TEMP POTENTIAL TOTAL3 TEMPAVG PRESSURE GPRESSURE VOLUME PRESSAVG GPRESSAVG
ENERGY: 400000 0.0000 0.0000 0.0000 0.0000 -13704.4523 2306.6110 0.0000 0.0000 673.6860 -10724.1554 116.1405 -11397.8413 -10722.8699 116.1405 -192.1264 -139.6176 28852.8708 -192.1264 -139.6176
ENERGY: 500000 0.0000 0.0000 0.0000 0.0000 -13486.3813 2266.1854 0.0000 0.0000 861.3698 -10358.8261 148.4964 -11220.1959 -10358.1953 149.8217 -5.5819 33.8571 29124.0375 3.2152 3.2430
TCL: Running 100000 steps at 180 kelvin.
TCL: Setting parameter langevinTemp to 180
TCL: Running for 100000 steps
ETITLE: TS BOND ANGLE DIHED IMPRP ELECT VDW BOUNDARY MISC KINETIC TOTAL TEMP POTENTIAL TOTAL3 TEMPAVG PRESSURE GPRESSURE VOLUME PRESSAVG GPRESSAVG
ENERGY: 500000 0.0000 0.0000 0.0000 0.0000 -13486.3813 2266.1854 0.0000 0.0000 860.9272 -10359.2688 148.4201 -11220.1959 -10357.3389 148.4201 -11.0555 33.2266 29124.0375 -11.0555 33.2266
ENERGY: 600000 0.0000 0.0000 0.0000 0.0000 -13135.3901 2214.3361 0.0000 0.0000 1048.1803 -9872.8737 180.7017 -10921.0540 -9871.0235 179.6164 1367.0239 1429.1603 28098.4988 3.3274 3.4439
TCL: Running 100000 steps at 210 kelvin.
TCL: Setting parameter langevinTemp to 210
TCL: Running for 100000 steps
ETITLE: TS BOND ANGLE DIHED IMPRP ELECT VDW BOUNDARY MISC KINETIC TOTAL TEMP POTENTIAL TOTAL3 TEMPAVG PRESSURE GPRESSURE VOLUME PRESSAVG GPRESSAVG
ENERGY: 600000 0.0000 0.0000 0.0000 0.0000 -13135.3901 2214.3361 0.0000 0.0000 1047.6761 -9873.3779 180.6148 -10921.0540 -9872.1151 180.6148 1353.2846 1429.2098 28098.4988 1353.2846 1429.2098
ENERGY: 700000 0.0000 0.0000 0.0000 0.0000 -12261.5181 1804.7185 0.0000 0.0000 1211.8972 -9244.9025 208.9258 -10456.7997 -9241.8692 210.1877 -662.5449 -609.7064 28860.2894 4.8129 4.8171
TCL: Running 100000 steps at 240 kelvin.
TCL: Setting parameter langevinTemp to 240
TCL: Running for 100000 steps
ETITLE: TS BOND ANGLE DIHED IMPRP ELECT VDW BOUNDARY MISC KINETIC TOTAL TEMP POTENTIAL TOTAL3 TEMPAVG PRESSURE GPRESSURE VOLUME PRESSAVG GPRESSAVG
ENERGY: 700000 0.0000 0.0000 0.0000 0.0000 -12261.5181 1804.7185 0.0000 0.0000 1211.2857 -9245.5140 208.8204 -10456.7997 -9243.2324 208.8204 -681.8294 -610.0343 28860.2894 -681.8294 -610.0343
ENERGY: 800000 0.0000 0.0000 0.0000 0.0000 -11765.7744 1738.6657 0.0000 0.0000 1380.5825 -8646.5261 238.0064 -10027.1086 -8643.8678 240.4884 459.9217 580.4091 28636.5849 2.3701 2.1639
TCL: Running 100000 steps at 270 kelvin.
TCL: Setting parameter langevinTemp to 270
TCL: Running for 100000 steps
ETITLE: TS BOND ANGLE DIHED IMPRP ELECT VDW BOUNDARY MISC KINETIC TOTAL TEMP POTENTIAL TOTAL3 TEMPAVG PRESSURE GPRESSURE VOLUME PRESSAVG GPRESSAVG
ENERGY: 800000 0.0000 0.0000 0.0000 0.0000 -11765.7744 1738.6657 0.0000 0.0000 1379.9164 -8647.1922 237.8916 -10027.1086 -8645.1895 237.8916 482.4630 580.1548 28636.5849 482.4630 580.1548
ENERGY: 900000 0.0000 0.0000 0.0000 0.0000 -11257.9902 1646.8931 0.0000 0.0000 1583.6023 -8027.4948 273.0061 -9611.0971 -8025.5975 270.0857 740.2647 783.2878 29469.8282 3.7852 3.7382
TCL: Running 1000000 steps at 300 kelvin.
TCL: Setting parameter langevinTemp to 300
TCL: Running for 1000000 steps
ETITLE: TS BOND ANGLE DIHED IMPRP ELECT VDW BOUNDARY MISC KINETIC TOTAL TEMP POTENTIAL TOTAL3 TEMPAVG PRESSURE GPRESSURE VOLUME PRESSAVG GPRESSAVG
ENERGY: 900000 0.0000 0.0000 0.0000 0.0000 -11257.9902 1646.8931 0.0000 0.0000 1582.8167 -8028.2804 272.8707 -9611.0971 -8025.2895 272.8707 712.1061 782.9423 29469.8282 712.1061 782.9423
ENERGY: 1100000 0.0000 0.0000 0.0000 0.0000 -10498.7548 1386.2174 0.0000 0.0000 1755.3555 -7357.1819 302.6156 -9112.5374 -7352.3196 299.6530 -162.3026 -54.3188 30496.5749 4.9168 4.7892
ENERGY: 1300000 0.0000 0.0000 0.0000 0.0000 -10499.9190 1306.0260 0.0000 0.0000 1736.0443 -7457.8487 299.2865 -9193.8930 -7453.2359 300.4906 -949.4714 -956.9502 30517.7374 3.6470 3.6847
ENERGY: 1500000 0.0000 0.0000 0.0000 0.0000 -10568.4958 1347.3581 0.0000 0.0000 1700.1996 -7520.9381 293.1070 -9221.1377 -7515.7831 300.3200 -749.4328 -657.5176 30247.3624 3.4356 3.4501
ENERGY: 1700000 0.0000 0.0000 0.0000 0.0000 -10576.5863 1350.8420 0.0000 0.0000 1742.9535 -7482.7908 300.4776 -9225.7443 -7477.4299 300.3064 -510.1204 -443.2677 30128.3277 1.7734 1.7343
ENERGY: 1900000 0.0000 0.0000 0.0000 0.0000 -10657.3739 1456.4541 0.0000 0.0000 1710.6925 -7490.2273 294.9159 -9200.9198 -7487.6573 299.9407 242.2182 232.6417 30346.0166 4.5547 4.3965
TCL: Exiting due to exit command.
