Info: SIMULATION PARAMETERS:
Info: TIMESTEP               2
Info: NUMBER OF STEPS        0
Info: STEPS PER CYCLE        10
Info: PERIODIC CELL BASIS 1  39.546 0 0
Info: PERIODIC CELL BASIS 2  0 35.779 0
Info: PERIODIC CELL BASIS 3  0 0 31.349
Info: PERIODIC CELL CENTER   0 0 0
Info: WRAPPING WATERS AROUND PERIODIC BOUNDARIES ON OUTPUT.
Info: WRAPPING ALL CLUSTERS AROUND PERIODIC BOUNDARIES ON OUTPUT.
Info: FIRST LDB TIMESTEP     50
Info: LAST LDB TIMESTEP     -1
Info: HOM BACKGROUND SCALING 1
Info: PME BACKGROUND SCALING 1
Info: MIN ATOMS PER PATCH    40
Info: EMPTY PATCH LOAD       40 ATOMS
Info: INITIAL TEMPERATURE    300
Info: CENTER OF MASS MOVING INITIALLY? NO
Info: DIELECTRIC             1
Info: EXCLUDE                SCALED ONE-FOUR
Info: 1-4 ELECTROSTATICS SCALED BY 0.833333
Info: MODIFIED 1-4 VDW PARAMETERS WILL BE USED
Info: DCD FILENAME           mobley_7239499_equil.dcd
Info: DCD FREQUENCY          100000
Info: DCD FIRST STEP         100000
Info: DCD FILE WILL CONTAIN UNIT CELL DATA
Info: XST FILENAME           mobley_7239499_equil.xst
Info: XST FREQUENCY          100000
Info: NO VELOCITY DCD OUTPUT
Info: NO FORCE DCD OUTPUT
Info: OUTPUT FILENAME        mobley_7239499_equil
Info: BINARY OUTPUT FILES WILL BE USED
Info: RESTART FILENAME       mobley_7239499_equil.restart
Info: RESTART FREQUENCY      100000
Info: BINARY RESTART FILES WILL BE USED
Info: CUTOFF                 9
Info: PAIRLIST DISTANCE      11
Info: PAIRLIST SHRINK RATE   0.01
Info: PAIRLIST GROW RATE     0.01
Info: PAIRLIST TRIGGER       0.3
Info: PAIRLISTS PER CYCLE    2
Info: PAIRLISTS ENABLED
Info: MARGIN                 8
Info: HYDROGEN GROUP CUTOFF  2.5
Info: PATCH DIMENSION        21.5
Info: ENERGY OUTPUT STEPS    100000
Info: ENERGY EVALUATION STEPS    100000
Info: OUTPUT ENERGY PRECISION 4
Info: CROSSTERM ENERGY INCLUDED IN DIHEDRAL
Info: TIMING OUTPUT STEPS    1000000
Info: PRESSURE OUTPUT STEPS  100000
Info: FIXED ATOMS ACTIVE
Info: LANGEVIN DYNAMICS ACTIVE
Info: LANGEVIN TEMPERATURE   30
Info: LANGEVIN USING BBK INTEGRATOR
Info: LANGEVIN DAMPING COEFFICIENT IS 1 INVERSE PS
Info: LANGEVIN DYNAMICS APPLIED TO HYDROGENS
Info: LANGEVIN PISTON PRESSURE CONTROL ACTIVE
Info:        TARGET PRESSURE IS 1.01325 BAR
Info:     OSCILLATION PERIOD IS 50 FS
Info:             DECAY TIME IS 25 FS
Info:     PISTON TEMPERATURE IS 300 K
Info:       PRESSURE CONTROL IS GROUP-BASED
Info:    INITIAL STRAIN RATE IS 0 0 0
Info:       CELL FLUCTUATION IS ISOTROPIC
Info: PARTICLE MESH EWALD (PME) ACTIVE
Info: PME TOLERANCE               1e-06
Info: PME EWALD COEFFICIENT       0.348832
Info: PME INTERPOLATION ORDER     4
Info: PME GRID DIMENSIONS         40 36 32
Info: PME MAXIMUM GRID SPACING    1
Info: FULL ELECTROSTATIC EVALUATION FREQUENCY      2
Info: USING VERLET I (r-RESPA) MTS SCHEME.
Info: C1 SPLITTING OF LONG RANGE ELECTROSTATICS
Info: PLACING ATOMS IN PATCHES BY HYDROGEN GROUPS
Info: RIGID BONDS TO HYDROGEN : ALL
Info:         ERROR TOLERANCE : 1e-08
Info:          MAX ITERATIONS : 100
Info: RIGID WATER USING SETTLE ALGORITHM
Info: RANDOM NUMBER SEED     1743764710
Info: USE HYDROGEN BONDS?    NO
Info: Using AMBER format force field!
Info: AMBER PARM FILE        mobley_7239499.prmtop
Info: COORDINATE PDB         mobley_7239499.pdb
Info: Exclusions will be read from PARM file!
Info: SCNB (VDW SCALING)     2
Info: USING ARITHMETIC MEAN TO COMBINE L-J SIGMA PARAMETERS
Info: BINARY COORDINATES     mobley_7239499_min.coor
Info: SUMMARY OF PARAMETERS:
Info: 6 BONDS
Info: 5 ANGLES
Info:   5 HARMONIC
Info:   0 COSINE-BASED
Info: 3 DIHEDRAL
Info: 0 IMPROPER
Info: 0 CROSSTERM
Info: 0 VDW
Info: 21 VDW_PAIRS
Info: 0 NBTHOLE_PAIRS
Info: STRUCTURE SUMMARY:
Info: 2989 ATOMS
Info: 2991 BONDS
Info: 38 ANGLES
Info: 68 DIHEDRALS
Info: 0 IMPROPERS
Info: 0 CROSSTERMS
Info: 3076 EXCLUSIONS
Info: 22 FIXED ATOMS
Info: 2974 RIGID BONDS
Info: 7 RIGID BONDS BETWEEN FIXED ATOMS
Info: 5934 DEGREES OF FREEDOM
Info: 1004 HYDROGEN GROUPS
Info: 3 ATOMS IN LARGEST HYDROGEN GROUP
Info: 1004 MIGRATION GROUPS
Info: 3 ATOMS IN LARGEST MIGRATION GROUP
Info: 15 HYDROGEN GROUPS WITH ALL ATOMS FIXED
Info: TOTAL MASS = 18036.5 amu
Info: TOTAL CHARGE = -1.11759e-08 e
Info: MASS DENSITY = 0.675236 g/cm^3
Info: ATOM DENSITY = 0.0673863 atoms/A^3
Info: ADDED 0 IMPLICIT EXCLUSIONS
Info: NONBONDED TABLE R-SQUARED SPACING: 0.0625
Info: NONBONDED TABLE SIZE: 705 POINTS
Info: REMOVING COM VELOCITY -0.0279685 0.181499 0.377023
TCL: Running for 100000 steps
ETITLE: TS BOND ANGLE DIHED IMPRP ELECT VDW BOUNDARY MISC KINETIC TOTAL TEMP POTENTIAL TOTAL3 TEMPAVG PRESSURE GPRESSURE VOLUME PRESSAVG GPRESSAVG
ENERGY: 0 0.0000 0.0000 0.0000 0.0000 -13827.8691 2394.7810 0.0000 0.0000 1791.0566 -9642.0315 303.7751 -11433.0881 -9641.6675 303.7751 190.3119 218.9149 44356.2122 190.3119 218.9149
ENERGY: 100000 0.0000 0.0000 0.0000 0.0000 -14402.1956 2477.4016 0.0000 0.0000 181.2272 -11743.5667 30.7373 -11924.7940 -11743.0099 30.9131 -349.7410 -298.7687 29446.6149 5.0438 5.0305
TCL: Running 100000 steps at 60 kelvin.
TCL: Setting parameter langevinTemp to 60
TCL: Running for 100000 steps
ETITLE: TS BOND ANGLE DIHED IMPRP ELECT VDW BOUNDARY MISC KINETIC TOTAL TEMP POTENTIAL TOTAL3 TEMPAVG PRESSURE GPRESSURE VOLUME PRESSAVG GPRESSAVG
ENERGY: 100000 0.0000 0.0000 0.0000 0.0000 -14402.1956 2477.4016 0.0000 0.0000 181.1411 -11743.6529 30.7227 -11924.7940 -11743.2149 30.7227 -360.0020 -298.8431 29446.6149 -360.0020 -298.8431
ENERGY: 200000 0.0000 0.0000 0.0000 0.0000 -14162.1416 2360.7343 0.0000 0.0000 359.2214 -11442.1859 60.9263 -11801.4073 -11441.2795 59.9356 -648.1042 -612.5868 29264.2522 4.0325 4.1251
TCL: Running 100000 steps at 90 kelvin.
TCL: Setting parameter langevinTemp to 90
TCL: Running for 100000 steps
ETITLE: TS BOND ANGLE DIHED IMPRP ELECT VDW BOUNDARY MISC KINETIC TOTAL TEMP POTENTIAL TOTAL3 TEMPAVG PRESSURE GPRESSURE VOLUME PRESSAVG GPRESSAVG
ENERGY: 200000 0.0000 0.0000 0.0000 0.0000 -14162.1416 2360.7343 0.0000 0.0000 359.0438 -11442.3636 60.8962 -11801.4073 -11441.5081 60.8962 -658.9068 -612.7460 29264.2522 -658.9068 -612.7460
ENERGY: 300000 0.0000 0.0000 0.0000 0.0000 -14095.0870 2376.6528 0.0000 0.0000 531.0125 -11187.4218 90.0632 -11718.4343 -11186.1358 89.9472 -176.1869 -101.4358 28939.3082 2.8717 2.8056
TCL: Running 100000 steps at 120 kelvin.
TCL: Setting parameter langevinTemp to 120
TCL: Running for 100000 steps
ETITLE: TS BOND ANGLE DIHED IMPRP ELECT VDW BOUNDARY MISC KINETIC TOTAL TEMP POTENTIAL TOTAL3 TEMPAVG PRESSURE GPRESSURE VOLUME PRESSAVG GPRESSAVG
ENERGY: 300000 0.0000 0.0000 0.0000 0.0000 -14095.0870 2376.6528 0.0000 0.0000 530.7502 -11187.6841 90.0188 -11718.4343 -11186.4984 90.0188 -160.0683 -101.8534 28939.3082 -160.0683 -101.8534
ENERGY: 400000 0.0000 0.0000 0.0000 0.0000 -13943.1379 2396.8572 0.0000 0.0000 693.1125 -10853.1681 117.5565 -11546.2807 -10851.2244 120.0742 613.6677 671.4228 28994.1243 3.5954 3.5410
TCL: Running 100000 steps at 150 kelvin.
TCL: Setting parameter langevinTemp to 150
TCL: Running for 100000 steps
ETITLE: TS BOND ANGLE DIHED IMPRP ELECT VDW BOUNDARY MISC KINETIC TOTAL TEMP POTENTIAL TOTAL3 TEMPAVG PRESSURE GPRESSURE VOLUME PRESSAVG GPRESSAVG
ENERGY: 400000 0.0000 0.0000 0.0000 0.0000 -13943.1379 2396.8572 0.0000 0.0000 692.7691 -10853.5116 117.4982 -11546.2807 -10852.3803 117.4982 618.4673 672.1544 28994.1243 618.4673 672.1544
ENERGY: 500000 0.0000 0.0000 0.0000 0.0000 -13672.8654 2242.1435 0.0000 0.0000 922.2050 -10508.5170 156.4121 -11430.7220 -10507.4444 150.0707 -38.8545 7.4043 29143.2838 5.2195 5.1875
TCL: Running 100000 steps at 180 kelvin.
TCL: Setting parameter langevinTemp to 180
TCL: Running for 100000 steps
ETITLE: TS BOND ANGLE DIHED IMPRP ELECT VDW BOUNDARY MISC KINETIC TOTAL TEMP POTENTIAL TOTAL3 TEMPAVG PRESSURE GPRESSURE VOLUME PRESSAVG GPRESSAVG
ENERGY: 500000 0.0000 0.0000 0.0000 0.0000 -13672.8654 2242.1435 0.0000 0.0000 921.7542 -10508.9678 156.3356 -11430.7220 -10507.2498 156.3356 -49.2556 6.6419 29143.2838 -49.2556 6.6419
ENERGY: 600000 0.0000 0.0000 0.0000 0.0000 -13372.7359 2246.2803 0.0000 0.0000 1068.0953 -10058.3604 181.1560 -11126.4556 -10055.2602 179.6328 814.2561 886.0981 29315.4980 4.1615 4.1306
TCL: Running 100000 steps at 210 kelvin.
TCL: Setting parameter langevinTemp to 210
TCL: Running for 100000 steps
ETITLE: TS BOND ANGLE DIHED IMPRP ELECT VDW BOUNDARY MISC KINETIC TOTAL TEMP POTENTIAL TOTAL3 TEMPAVG PRESSURE GPRESSURE VOLUME PRESSAVG GPRESSAVG
ENERGY: 600000 0.0000 0.0000 0.0000 0.0000 -13372.7359 2246.2803 0.0000 0.0000 1067.5723 -10058.8834 181.0673 -11126.4556 -10056.9605 181.0673 836.3386 886.5435 29315.4980 836.3386 886.5435
ENERGY: 700000 0.0000 0.0000 0.0000 0.0000 -12663.4326 2004.2796 0.0000 0.0000 1230.5061 -9428.6470 208.7020 -10659.1531 -9425.5280 210.5017 863.6743 968.5699 28964.9727 3.6664 3.5555
TCL: Running 100000 steps at 240 kelvin.
TCL: Setting parameter langevinTemp to 240
TCL: Running for 100000 steps
ETITLE: TS BOND ANGLE DIHED IMPRP ELECT VDW BOUNDARY MISC KINETIC TOTAL TEMP POTENTIAL TOTAL3 TEMPAVG PRESSURE GPRESSURE VOLUME PRESSAVG GPRESSAVG
ENERGY: 700000 0.0000 0.0000 0.0000 0.0000 -12663.4326 2004.2796 0.0000 0.0000 1229.8877 -9429.2654 208.5971 -10659.1531 -9427.3794 208.5971 887.4041 970.0051 28964.9727 887.4041 970.0051
ENERGY: 800000 0.0000 0.0000 0.0000 0.0000 -12015.2888 1707.2722 0.0000 0.0000 1444.6187 -8863.3980 245.0169 -10308.0166 -8859.3200 239.9266 -601.7210 -504.6949 29696.2581 2.4196 2.6105
TCL: Running 100000 steps at 270 kelvin.
TCL: Setting parameter langevinTemp to 270
TCL: Running for 100000 steps
ETITLE: TS BOND ANGLE DIHED IMPRP ELECT VDW BOUNDARY MISC KINETIC TOTAL TEMP POTENTIAL TOTAL3 TEMPAVG PRESSURE GPRESSURE VOLUME PRESSAVG GPRESSAVG
ENERGY: 800000 0.0000 0.0000 0.0000 0.0000 -12015.2888 1707.2722 0.0000 0.0000 1443.9203 -8864.0964 244.8985 -10308.0166 -8861.4077 244.8985 -586.5673 -502.5198 29696.2581 -586.5673 -502.5198
ENERGY: 900000 0.0000 0.0000 0.0000 0.0000 -11365.9681 1600.3892 0.0000 0.0000 1615.5766 -8150.0022 274.0125 -9765.5788 -8148.7305 270.1070 188.7783 182.7237 30252.8712 3.5490 3.4623
TCL: Running 1000000 steps at 300 kelvin.
TCL: Setting parameter langevinTemp to 300
TCL: Running for 1000000 steps
ETITLE: TS BOND ANGLE DIHED IMPRP ELECT VDW BOUNDARY MISC KINETIC TOTAL TEMP POTENTIAL TOTAL3 TEMPAVG PRESSURE GPRESSURE VOLUME PRESSAVG GPRESSAVG
ENERGY: 900000 0.0000 0.0000 0.0000 0.0000 -11365.9681 1600.3892 0.0000 0.0000 1614.7971 -8150.7818 273.8803 -9765.5788 -8148.6920 273.8803 101.5709 182.4422 30252.8712 101.5709 182.4422
ENERGY: 1100000 0.0000 0.0000 0.0000 0.0000 -10745.7274 1388.8217 0.0000 0.0000 1740.8510 -7616.0547 295.2599 -9356.9057 -7612.5613 299.9536 -445.8009 -431.9161 31201.9822 3.1098 3.0837
ENERGY: 1300000 0.0000 0.0000 0.0000 0.0000 -10704.6758 1385.4184 0.0000 0.0000 1800.1466 -7519.1109 305.3168 -9319.2575 -7515.2882 300.2219 -164.8107 -56.4625 30597.8342 3.1429 3.1016
ENERGY: 1500000 0.0000 0.0000 0.0000 0.0000 -10723.3773 1373.3794 0.0000 0.0000 1685.4949 -7664.5029 285.8711 -9349.9978 -7659.0870 299.7102 -736.2510 -711.1988 31383.9858 3.2295 3.2784
ENERGY: 1700000 0.0000 0.0000 0.0000 0.0000 -10801.2670 1422.0033 0.0000 0.0000 1760.5774 -7618.6863 298.6056 -9379.2637 -7613.5503 299.9365 -38.9142 40.3651 30581.3247 3.9972 3.9383
ENERGY: 1900000 0.0000 0.0000 0.0000 0.0000 -10798.4885 1434.4793 0.0000 0.0000 1741.8754 -7622.1338 295.4336 -9364.0092 -7619.4461 299.9811 -14.4158 46.7111 30913.8462 2.7969 2.6958
TCL: Exiting due to exit command.
