Info: SIMULATION PARAMETERS:
Info: TIMESTEP               2
Info: NUMBER OF STEPS        0
Info: STEPS PER CYCLE        10
Info: PERIODIC CELL BASIS 1  37.435 0 0
Info: PERIODIC CELL BASIS 2  0 35.779 0
Info: PERIODIC CELL BASIS 3  0 0 31.349
Info: PERIODIC CELL CENTER   0 0 0
Info: WRAPPING WATERS AROUND PERIODIC BOUNDARIES ON OUTPUT.
Info: WRAPPING ALL CLUSTERS AROUND PERIODIC BOUNDARIES ON OUTPUT.
Info: FIRST LDB TIMESTEP     50
Info: LAST LDB TIMESTEP     -1
Info: HOM BACKGROUND SCALING 1
Info: PME BACKGROUND SCALING 1
Info: MIN ATOMS PER PATCH    40
Info: EMPTY PATCH LOAD       40 ATOMS
Info: INITIAL TEMPERATURE    300
Info: CENTER OF MASS MOVING INITIALLY? NO
Info: DIELECTRIC             1
Info: EXCLUDE                SCALED ONE-FOUR
Info: 1-4 ELECTROSTATICS SCALED BY 0.833333
Info: MODIFIED 1-4 VDW PARAMETERS WILL BE USED
Info: DCD FILENAME           mobley_282648_equil.dcd
Info: DCD FREQUENCY          100000
Info: DCD FIRST STEP         100000
Info: DCD FILE WILL CONTAIN UNIT CELL DATA
Info: XST FILENAME           mobley_282648_equil.xst
Info: XST FREQUENCY          100000
Info: NO VELOCITY DCD OUTPUT
Info: NO FORCE DCD OUTPUT
Info: OUTPUT FILENAME        mobley_282648_equil
Info: BINARY OUTPUT FILES WILL BE USED
Info: RESTART FILENAME       mobley_282648_equil.restart
Info: RESTART FREQUENCY      100000
Info: BINARY RESTART FILES WILL BE USED
Info: CUTOFF                 9
Info: PAIRLIST DISTANCE      11
Info: PAIRLIST SHRINK RATE   0.01
Info: PAIRLIST GROW RATE     0.01
Info: PAIRLIST TRIGGER       0.3
Info: PAIRLISTS PER CYCLE    2
Info: PAIRLISTS ENABLED
Info: MARGIN                 8
Info: HYDROGEN GROUP CUTOFF  2.5
Info: PATCH DIMENSION        21.5
Info: ENERGY OUTPUT STEPS    100000
Info: ENERGY EVALUATION STEPS    100000
Info: OUTPUT ENERGY PRECISION 4
Info: CROSSTERM ENERGY INCLUDED IN DIHEDRAL
Info: TIMING OUTPUT STEPS    1000000
Info: PRESSURE OUTPUT STEPS  100000
Info: FIXED ATOMS ACTIVE
Info: LANGEVIN DYNAMICS ACTIVE
Info: LANGEVIN TEMPERATURE   30
Info: LANGEVIN USING BBK INTEGRATOR
Info: LANGEVIN DAMPING COEFFICIENT IS 1 INVERSE PS
Info: LANGEVIN DYNAMICS APPLIED TO HYDROGENS
Info: LANGEVIN PISTON PRESSURE CONTROL ACTIVE
Info:        TARGET PRESSURE IS 1.01325 BAR
Info:     OSCILLATION PERIOD IS 50 FS
Info:             DECAY TIME IS 25 FS
Info:     PISTON TEMPERATURE IS 300 K
Info:       PRESSURE CONTROL IS GROUP-BASED
Info:    INITIAL STRAIN RATE IS 0 0 0
Info:       CELL FLUCTUATION IS ISOTROPIC
Info: PARTICLE MESH EWALD (PME) ACTIVE
Info: PME TOLERANCE               1e-06
Info: PME EWALD COEFFICIENT       0.348832
Info: PME INTERPOLATION ORDER     4
Info: PME GRID DIMENSIONS         40 36 32
Info: PME MAXIMUM GRID SPACING    1
Info: FULL ELECTROSTATIC EVALUATION FREQUENCY      2
Info: USING VERLET I (r-RESPA) MTS SCHEME.
Info: C1 SPLITTING OF LONG RANGE ELECTROSTATICS
Info: PLACING ATOMS IN PATCHES BY HYDROGEN GROUPS
Info: RIGID BONDS TO HYDROGEN : ALL
Info:         ERROR TOLERANCE : 1e-08
Info:          MAX ITERATIONS : 100
Info: RIGID WATER USING SETTLE ALGORITHM
Info: RANDOM NUMBER SEED     1743740373
Info: USE HYDROGEN BONDS?    NO
Info: Using AMBER format force field!
Info: AMBER PARM FILE        mobley_282648.prmtop
Info: COORDINATE PDB         mobley_282648.pdb
Info: Exclusions will be read from PARM file!
Info: SCNB (VDW SCALING)     2
Info: USING ARITHMETIC MEAN TO COMBINE L-J SIGMA PARAMETERS
Info: BINARY COORDINATES     mobley_282648_min.coor
Info: SUMMARY OF PARAMETERS:
Info: 4 BONDS
Info: 2 ANGLES
Info:   2 HARMONIC
Info:   0 COSINE-BASED
Info: 2 DIHEDRAL
Info: 0 IMPROPER
Info: 0 CROSSTERM
Info: 0 VDW
Info: 10 VDW_PAIRS
Info: 0 NBTHOLE_PAIRS
Info: STRUCTURE SUMMARY:
Info: 2904 ATOMS
Info: 2905 BONDS
Info: 30 ANGLES
Info: 54 DIHEDRALS
Info: 0 IMPROPERS
Info: 0 CROSSTERMS
Info: 2973 EXCLUSIONS
Info: 18 FIXED ATOMS
Info: 2894 RIGID BONDS
Info: 8 RIGID BONDS BETWEEN FIXED ATOMS
Info: 5772 DEGREES OF FREEDOM
Info: 972 HYDROGEN GROUPS
Info: 3 ATOMS IN LARGEST HYDROGEN GROUP
Info: 972 MIGRATION GROUPS
Info: 3 ATOMS IN LARGEST MIGRATION GROUP
Info: 10 HYDROGEN GROUPS WITH ALL ATOMS FIXED
Info: TOTAL MASS = 17459.6 amu
Info: TOTAL CHARGE = -0.000300005 e
Info: MASS DENSITY = 0.690498 g/cm^3
Info: ATOM DENSITY = 0.0691619 atoms/A^3
Info: ADDED 0 IMPLICIT EXCLUSIONS
Info: NONBONDED TABLE R-SQUARED SPACING: 0.0625
Info: NONBONDED TABLE SIZE: 705 POINTS
Info: REMOVING COM VELOCITY -0.186364 -0.018168 -0.111293
TCL: Running for 100000 steps
ETITLE: TS BOND ANGLE DIHED IMPRP ELECT VDW BOUNDARY MISC KINETIC TOTAL TEMP POTENTIAL TOTAL3 TEMPAVG PRESSURE GPRESSURE VOLUME PRESSAVG GPRESSAVG
ENERGY: 0 0.0000 0.0000 0.0000 0.0000 -13471.5802 2324.2365 0.0000 0.0000 1768.5590 -9378.7848 308.3782 -11147.3437 -9378.4138 308.3782 99.6480 125.0072 41988.4388 99.6480 125.0072
ENERGY: 100000 0.0000 0.0000 0.0000 0.0000 -13926.8772 2473.3807 0.0000 0.0000 175.9995 -11277.4970 30.6885 -11453.4965 -11277.1269 30.7708 318.2880 385.2402 29731.8339 3.3079 3.3784
TCL: Running 100000 steps at 60 kelvin.
TCL: Setting parameter langevinTemp to 60
TCL: Running for 100000 steps
ETITLE: TS BOND ANGLE DIHED IMPRP ELECT VDW BOUNDARY MISC KINETIC TOTAL TEMP POTENTIAL TOTAL3 TEMPAVG PRESSURE GPRESSURE VOLUME PRESSAVG GPRESSAVG
ENERGY: 100000 0.0000 0.0000 0.0000 0.0000 -13926.8772 2473.3807 0.0000 0.0000 175.9148 -11277.5817 30.6737 -11453.4965 -11277.2411 30.6737 334.9146 385.0792 29731.8339 334.9146 385.0792
ENERGY: 200000 0.0000 0.0000 0.0000 0.0000 -13824.1841 2364.3305 0.0000 0.0000 342.5932 -11117.2604 59.7369 -11459.8536 -11116.7252 59.9035 -224.4592 -159.0029 28665.2703 4.4986 4.5045
TCL: Running 100000 steps at 90 kelvin.
TCL: Setting parameter langevinTemp to 90
TCL: Running for 100000 steps
ETITLE: TS BOND ANGLE DIHED IMPRP ELECT VDW BOUNDARY MISC KINETIC TOTAL TEMP POTENTIAL TOTAL3 TEMPAVG PRESSURE GPRESSURE VOLUME PRESSAVG GPRESSAVG
ENERGY: 200000 0.0000 0.0000 0.0000 0.0000 -13824.1841 2364.3305 0.0000 0.0000 342.4242 -11117.4293 59.7075 -11459.8536 -11116.5728 59.7075 -217.6750 -159.5003 28665.2703 -217.6750 -159.5003
ENERGY: 300000 0.0000 0.0000 0.0000 0.0000 -13601.1462 2228.8819 0.0000 0.0000 500.4242 -10871.8401 87.2574 -11372.2642 -10870.9713 89.7839 -1084.5355 -1047.2624 28621.8166 5.2943 5.2932
TCL: Running 100000 steps at 120 kelvin.
TCL: Setting parameter langevinTemp to 120
TCL: Running for 100000 steps
ETITLE: TS BOND ANGLE DIHED IMPRP ELECT VDW BOUNDARY MISC KINETIC TOTAL TEMP POTENTIAL TOTAL3 TEMPAVG PRESSURE GPRESSURE VOLUME PRESSAVG GPRESSAVG
ENERGY: 300000 0.0000 0.0000 0.0000 0.0000 -13601.1462 2228.8819 0.0000 0.0000 500.1700 -10872.0943 87.2131 -11372.2642 -10870.9143 87.2131 -1096.1242 -1048.7413 28621.8166 -1096.1242 -1048.7413
ENERGY: 400000 0.0000 0.0000 0.0000 0.0000 -13475.4817 2199.5539 0.0000 0.0000 671.4729 -10604.4548 117.0827 -11275.9278 -10602.6482 120.1847 -762.6219 -718.7185 28398.0579 3.7564 3.7588
TCL: Running 100000 steps at 150 kelvin.
TCL: Setting parameter langevinTemp to 150
TCL: Running for 100000 steps
ETITLE: TS BOND ANGLE DIHED IMPRP ELECT VDW BOUNDARY MISC KINETIC TOTAL TEMP POTENTIAL TOTAL3 TEMPAVG PRESSURE GPRESSURE VOLUME PRESSAVG GPRESSAVG
ENERGY: 400000 0.0000 0.0000 0.0000 0.0000 -13475.4817 2199.5539 0.0000 0.0000 671.1068 -10604.8210 117.0188 -11275.9278 -10603.2407 117.0188 -780.6775 -719.0471 28398.0579 -780.6775 -719.0471
ENERGY: 500000 0.0000 0.0000 0.0000 0.0000 -13339.0022 2230.5605 0.0000 0.0000 856.0374 -10252.4043 149.2646 -11108.4417 -10250.1983 149.8246 -22.1107 12.5298 28561.9075 2.5282 2.5177
TCL: Running 100000 steps at 180 kelvin.
TCL: Setting parameter langevinTemp to 180
TCL: Running for 100000 steps
ETITLE: TS BOND ANGLE DIHED IMPRP ELECT VDW BOUNDARY MISC KINETIC TOTAL TEMP POTENTIAL TOTAL3 TEMPAVG PRESSURE GPRESSURE VOLUME PRESSAVG GPRESSAVG
ENERGY: 500000 0.0000 0.0000 0.0000 0.0000 -13339.0022 2230.5605 0.0000 0.0000 855.6084 -10252.8333 149.1898 -11108.4417 -10251.1282 149.1898 -47.4981 11.4877 28561.9075 -47.4981 11.4877
ENERGY: 600000 0.0000 0.0000 0.0000 0.0000 -12885.8850 2060.1298 0.0000 0.0000 1016.1538 -9809.6013 177.1836 -10825.7551 -9807.1066 180.2064 -597.6418 -541.4490 29016.6216 2.9396 3.0460
TCL: Running 100000 steps at 210 kelvin.
TCL: Setting parameter langevinTemp to 210
TCL: Running for 100000 steps
ETITLE: TS BOND ANGLE DIHED IMPRP ELECT VDW BOUNDARY MISC KINETIC TOTAL TEMP POTENTIAL TOTAL3 TEMPAVG PRESSURE GPRESSURE VOLUME PRESSAVG GPRESSAVG
ENERGY: 600000 0.0000 0.0000 0.0000 0.0000 -12885.8850 2060.1298 0.0000 0.0000 1015.6389 -9810.1163 177.0938 -10825.7551 -9808.3125 177.0938 -588.4446 -541.0080 29016.6216 -588.4446 -541.0080
ENERGY: 700000 0.0000 0.0000 0.0000 0.0000 -12121.8510 1806.6849 0.0000 0.0000 1207.4765 -9107.6896 210.5439 -10315.1661 -9105.5969 209.8431 -337.9906 -283.6961 28417.2904 4.0952 4.3276
TCL: Running 100000 steps at 240 kelvin.
TCL: Setting parameter langevinTemp to 240
TCL: Running for 100000 steps
ETITLE: TS BOND ANGLE DIHED IMPRP ELECT VDW BOUNDARY MISC KINETIC TOTAL TEMP POTENTIAL TOTAL3 TEMPAVG PRESSURE GPRESSURE VOLUME PRESSAVG GPRESSAVG
ENERGY: 700000 0.0000 0.0000 0.0000 0.0000 -12121.8510 1806.6849 0.0000 0.0000 1206.9013 -9108.2648 210.4437 -10315.1661 -9105.6840 210.4437 -368.2086 -284.5031 28417.2904 -368.2086 -284.5031
ENERGY: 800000 0.0000 0.0000 0.0000 0.0000 -11657.7311 1711.3579 0.0000 0.0000 1394.1864 -8552.1867 243.1000 -9946.3731 -8549.4096 239.9660 35.2447 107.1968 28887.3801 2.7883 2.9286
TCL: Running 100000 steps at 270 kelvin.
TCL: Setting parameter langevinTemp to 270
TCL: Running for 100000 steps
ETITLE: TS BOND ANGLE DIHED IMPRP ELECT VDW BOUNDARY MISC KINETIC TOTAL TEMP POTENTIAL TOTAL3 TEMPAVG PRESSURE GPRESSURE VOLUME PRESSAVG GPRESSAVG
ENERGY: 800000 0.0000 0.0000 0.0000 0.0000 -11657.7311 1711.3579 0.0000 0.0000 1393.4885 -8552.8846 242.9783 -9946.3731 -8550.7962 242.9783 21.2135 107.9601 28887.3801 21.2135 107.9601
ENERGY: 900000 0.0000 0.0000 0.0000 0.0000 -11116.3974 1616.3303 0.0000 0.0000 1605.6783 -7894.3888 279.9772 -9500.0671 -7892.2665 269.7003 911.0623 1032.9092 28749.3270 3.0841 3.0912
TCL: Running 1000000 steps at 300 kelvin.
TCL: Setting parameter langevinTemp to 300
TCL: Running for 1000000 steps
ETITLE: TS BOND ANGLE DIHED IMPRP ELECT VDW BOUNDARY MISC KINETIC TOTAL TEMP POTENTIAL TOTAL3 TEMPAVG PRESSURE GPRESSURE VOLUME PRESSAVG GPRESSAVG
ENERGY: 900000 0.0000 0.0000 0.0000 0.0000 -11116.3974 1616.3303 0.0000 0.0000 1604.8771 -7895.1900 279.8375 -9500.0671 -7893.8250 279.8375 940.8064 1033.0539 28749.3270 940.8064 1033.0539
ENERGY: 1100000 0.0000 0.0000 0.0000 0.0000 -10645.1660 1507.4204 0.0000 0.0000 1705.0232 -7432.7223 297.2996 -9137.7456 -7430.0053 300.4482 899.3518 983.9483 29617.4206 3.3562 3.3021
ENERGY: 1300000 0.0000 0.0000 0.0000 0.0000 -10619.9826 1448.8895 0.0000 0.0000 1764.4798 -7406.6132 307.6669 -9171.0930 -7404.4849 300.2434 605.8400 715.3417 29104.6144 3.7874 3.7911
ENERGY: 1500000 0.0000 0.0000 0.0000 0.0000 -10476.8694 1367.4077 0.0000 0.0000 1786.9522 -7322.5096 311.5853 -9109.4617 -7323.3076 300.5131 -235.2794 -212.9820 29845.8588 3.4398 3.4505
ENERGY: 1700000 0.0000 0.0000 0.0000 0.0000 -10610.8278 1423.0186 0.0000 0.0000 1717.2349 -7470.5743 299.4289 -9187.8092 -7470.2674 300.2640 -14.0123 117.2666 29617.4777 3.6733 3.6331
ENERGY: 1900000 0.0000 0.0000 0.0000 0.0000 -10521.0824 1402.4983 0.0000 0.0000 1744.6913 -7373.8928 304.2164 -9118.5841 -7370.8051 300.3955 81.7429 168.0225 29673.6202 4.0648 4.0009
TCL: Exiting due to exit command.
