Info: SIMULATION PARAMETERS:
Info: TIMESTEP               2
Info: NUMBER OF STEPS        0
Info: STEPS PER CYCLE        10
Info: PERIODIC CELL BASIS 1  36.592 0 0
Info: PERIODIC CELL BASIS 2  0 35.411 0
Info: PERIODIC CELL BASIS 3  0 0 33.876
Info: PERIODIC CELL CENTER   0 0 0
Info: WRAPPING WATERS AROUND PERIODIC BOUNDARIES ON OUTPUT.
Info: WRAPPING ALL CLUSTERS AROUND PERIODIC BOUNDARIES ON OUTPUT.
Info: FIRST LDB TIMESTEP     50
Info: LAST LDB TIMESTEP     -1
Info: HOM BACKGROUND SCALING 1
Info: PME BACKGROUND SCALING 1
Info: MIN ATOMS PER PATCH    40
Info: EMPTY PATCH LOAD       40 ATOMS
Info: INITIAL TEMPERATURE    300
Info: CENTER OF MASS MOVING INITIALLY? NO
Info: DIELECTRIC             1
Info: EXCLUDE                SCALED ONE-FOUR
Info: 1-4 ELECTROSTATICS SCALED BY 0.833333
Info: MODIFIED 1-4 VDW PARAMETERS WILL BE USED
Info: DCD FILENAME           mobley_63712_equil.dcd
Info: DCD FREQUENCY          100000
Info: DCD FIRST STEP         100000
Info: DCD FILE WILL CONTAIN UNIT CELL DATA
Info: XST FILENAME           mobley_63712_equil.xst
Info: XST FREQUENCY          100000
Info: NO VELOCITY DCD OUTPUT
Info: NO FORCE DCD OUTPUT
Info: OUTPUT FILENAME        mobley_63712_equil
Info: BINARY OUTPUT FILES WILL BE USED
Info: RESTART FILENAME       mobley_63712_equil.restart
Info: RESTART FREQUENCY      100000
Info: BINARY RESTART FILES WILL BE USED
Info: CUTOFF                 9
Info: PAIRLIST DISTANCE      11
Info: PAIRLIST SHRINK RATE   0.01
Info: PAIRLIST GROW RATE     0.01
Info: PAIRLIST TRIGGER       0.3
Info: PAIRLISTS PER CYCLE    2
Info: PAIRLISTS ENABLED
Info: MARGIN                 8
Info: HYDROGEN GROUP CUTOFF  2.5
Info: PATCH DIMENSION        21.5
Info: ENERGY OUTPUT STEPS    100000
Info: ENERGY EVALUATION STEPS    100000
Info: OUTPUT ENERGY PRECISION 4
Info: CROSSTERM ENERGY INCLUDED IN DIHEDRAL
Info: TIMING OUTPUT STEPS    1000000
Info: PRESSURE OUTPUT STEPS  100000
Info: FIXED ATOMS ACTIVE
Info: LANGEVIN DYNAMICS ACTIVE
Info: LANGEVIN TEMPERATURE   30
Info: LANGEVIN USING BBK INTEGRATOR
Info: LANGEVIN DAMPING COEFFICIENT IS 1 INVERSE PS
Info: LANGEVIN DYNAMICS APPLIED TO HYDROGENS
Info: LANGEVIN PISTON PRESSURE CONTROL ACTIVE
Info:        TARGET PRESSURE IS 1.01325 BAR
Info:     OSCILLATION PERIOD IS 50 FS
Info:             DECAY TIME IS 25 FS
Info:     PISTON TEMPERATURE IS 300 K
Info:       PRESSURE CONTROL IS GROUP-BASED
Info:    INITIAL STRAIN RATE IS 0 0 0
Info:       CELL FLUCTUATION IS ISOTROPIC
Info: PARTICLE MESH EWALD (PME) ACTIVE
Info: PME TOLERANCE               1e-06
Info: PME EWALD COEFFICIENT       0.348832
Info: PME INTERPOLATION ORDER     4
Info: PME GRID DIMENSIONS         40 36 36
Info: PME MAXIMUM GRID SPACING    1
Info: FULL ELECTROSTATIC EVALUATION FREQUENCY      2
Info: USING VERLET I (r-RESPA) MTS SCHEME.
Info: C1 SPLITTING OF LONG RANGE ELECTROSTATICS
Info: PLACING ATOMS IN PATCHES BY HYDROGEN GROUPS
Info: RIGID BONDS TO HYDROGEN : ALL
Info:         ERROR TOLERANCE : 1e-08
Info:          MAX ITERATIONS : 100
Info: RIGID WATER USING SETTLE ALGORITHM
Info: RANDOM NUMBER SEED     1743764184
Info: USE HYDROGEN BONDS?    NO
Info: Using AMBER format force field!
Info: AMBER PARM FILE        mobley_63712.prmtop
Info: COORDINATE PDB         mobley_63712.pdb
Info: Exclusions will be read from PARM file!
Info: SCNB (VDW SCALING)     2
Info: USING ARITHMETIC MEAN TO COMBINE L-J SIGMA PARAMETERS
Info: BINARY COORDINATES     mobley_63712_min.coor
Info: SUMMARY OF PARAMETERS:
Info: 6 BONDS
Info: 8 ANGLES
Info: 8 DIHEDRAL
Info: 0 IMPROPER
Info: 0 CROSSTERM
Info: 0 VDW
Info: 21 VDW_PAIRS
Info: 0 NBTHOLE_PAIRS
Info: STRUCTURE SUMMARY:
Info: 2951 ATOMS
Info: 2951 BONDS
Info: 39 ANGLES
Info: 62 DIHEDRALS
Info: 0 IMPROPERS
Info: 0 CROSSTERMS
Info: 3041 EXCLUSIONS
Info: 20 FIXED ATOMS
Info: 2944 RIGID BONDS
Info: 13 RIGID BONDS BETWEEN FIXED ATOMS
Info: 5862 DEGREES OF FREEDOM
Info: 984 HYDROGEN GROUPS
Info: 4 ATOMS IN LARGEST HYDROGEN GROUP
Info: 984 MIGRATION GROUPS
Info: 4 ATOMS IN LARGEST MIGRATION GROUP
Info: 7 HYDROGEN GROUPS WITH ALL ATOMS FIXED
Info: TOTAL MASS = 17700.8 amu
Info: TOTAL CHARGE = -1.11759e-08 e
Info: MASS DENSITY = 0.669631 g/cm^3
Info: ATOM DENSITY = 0.0672284 atoms/A^3
Info: ADDED 0 IMPLICIT EXCLUSIONS
Info: NONBONDED TABLE R-SQUARED SPACING: 0.0625
Info: NONBONDED TABLE SIZE: 705 POINTS
Info: REMOVING COM VELOCITY -0.0320352 0.0211769 -0.0200786
TCL: Running for 100000 steps
ETITLE: TS BOND ANGLE DIHED IMPRP ELECT VDW BOUNDARY MISC KINETIC TOTAL TEMP POTENTIAL TOTAL3 TEMPAVG PRESSURE GPRESSURE VOLUME PRESSAVG GPRESSAVG
ENERGY: 0 0.0000 0.0000 0.0000 0.0000 -13654.9425 2368.5571 0.0000 0.0000 1702.3202 -9584.0653 292.2711 -11286.3854 -9583.7209 292.2711 111.2624 141.9029 43895.1425 111.2624 141.9029
ENERGY: 100000 0.0000 0.0000 0.0000 0.0000 -14246.4377 2477.5049 0.0000 0.0000 175.0887 -11593.8441 30.0610 -11768.9329 -11593.5431 30.9399 -263.6522 -213.0898 29732.1747 4.4183 4.4101
TCL: Running 100000 steps at 60 kelvin.
TCL: Setting parameter langevinTemp to 60
TCL: Running for 100000 steps
ETITLE: TS BOND ANGLE DIHED IMPRP ELECT VDW BOUNDARY MISC KINETIC TOTAL TEMP POTENTIAL TOTAL3 TEMPAVG PRESSURE GPRESSURE VOLUME PRESSAVG GPRESSAVG
ENERGY: 100000 0.0000 0.0000 0.0000 0.0000 -14246.4377 2477.5049 0.0000 0.0000 175.0035 -11593.9293 30.0463 -11768.9329 -11593.4625 30.0463 -266.2511 -213.2587 29732.1747 -266.2511 -213.2587
ENERGY: 200000 0.0000 0.0000 0.0000 0.0000 -14164.8252 2470.0319 0.0000 0.0000 363.8051 -11330.9883 62.4616 -11694.7934 -11329.9741 60.0247 95.6601 192.5816 29253.6389 3.2077 3.1937
TCL: Running 100000 steps at 90 kelvin.
TCL: Setting parameter langevinTemp to 90
TCL: Running for 100000 steps
ETITLE: TS BOND ANGLE DIHED IMPRP ELECT VDW BOUNDARY MISC KINETIC TOTAL TEMP POTENTIAL TOTAL3 TEMPAVG PRESSURE GPRESSURE VOLUME PRESSAVG GPRESSAVG
ENERGY: 200000 0.0000 0.0000 0.0000 0.0000 -14164.8252 2470.0319 0.0000 0.0000 363.6257 -11331.1677 62.4308 -11694.7934 -11330.4788 62.4308 132.7584 192.8111 29253.6389 132.7584 192.8111
ENERGY: 300000 0.0000 0.0000 0.0000 0.0000 -14006.3658 2425.2083 0.0000 0.0000 530.8285 -11050.3289 91.1379 -11581.1574 -11049.0029 89.9430 377.8927 449.2567 28798.3447 3.9418 3.9673
TCL: Running 100000 steps at 120 kelvin.
TCL: Setting parameter langevinTemp to 120
TCL: Running for 100000 steps
ETITLE: TS BOND ANGLE DIHED IMPRP ELECT VDW BOUNDARY MISC KINETIC TOTAL TEMP POTENTIAL TOTAL3 TEMPAVG PRESSURE GPRESSURE VOLUME PRESSAVG GPRESSAVG
ENERGY: 300000 0.0000 0.0000 0.0000 0.0000 -14006.3658 2425.2083 0.0000 0.0000 530.5683 -11050.5891 91.0932 -11581.1574 -11049.4067 91.0932 397.1895 449.6181 28798.3447 397.1895 449.6181
ENERGY: 400000 0.0000 0.0000 0.0000 0.0000 -13902.5073 2425.0257 0.0000 0.0000 710.4545 -10767.0271 121.9778 -11477.4816 -10766.3740 120.1056 944.0206 962.5699 28527.1779 3.8388 3.8080
TCL: Running 100000 steps at 150 kelvin.
TCL: Setting parameter langevinTemp to 150
TCL: Running for 100000 steps
ETITLE: TS BOND ANGLE DIHED IMPRP ELECT VDW BOUNDARY MISC KINETIC TOTAL TEMP POTENTIAL TOTAL3 TEMPAVG PRESSURE GPRESSURE VOLUME PRESSAVG GPRESSAVG
ENERGY: 400000 0.0000 0.0000 0.0000 0.0000 -13902.5073 2425.0257 0.0000 0.0000 710.1105 -10767.3711 121.9188 -11477.4816 -10766.2716 121.9188 913.7435 961.4764 28527.1779 913.7435 961.4764
ENERGY: 500000 0.0000 0.0000 0.0000 0.0000 -13614.5262 2311.7113 0.0000 0.0000 869.1188 -10433.6962 149.2189 -11302.8150 -10431.0247 149.6364 438.2527 463.6849 28957.4055 3.1632 3.1450
TCL: Running 100000 steps at 180 kelvin.
TCL: Setting parameter langevinTemp to 180
TCL: Running for 100000 steps
ETITLE: TS BOND ANGLE DIHED IMPRP ELECT VDW BOUNDARY MISC KINETIC TOTAL TEMP POTENTIAL TOTAL3 TEMPAVG PRESSURE GPRESSURE VOLUME PRESSAVG GPRESSAVG
ENERGY: 500000 0.0000 0.0000 0.0000 0.0000 -13614.5262 2311.7113 0.0000 0.0000 868.6833 -10434.1317 149.1441 -11302.8150 -10432.6286 149.1441 416.9791 463.7845 28957.4055 416.9791 463.7845
ENERGY: 600000 0.0000 0.0000 0.0000 0.0000 -13129.4161 2130.1284 0.0000 0.0000 1059.1916 -9940.0961 181.8524 -10999.2877 -9936.9891 180.2451 104.5168 189.6942 28871.1822 5.4967 5.5189
TCL: Running 100000 steps at 210 kelvin.
TCL: Setting parameter langevinTemp to 210
TCL: Running for 100000 steps
ETITLE: TS BOND ANGLE DIHED IMPRP ELECT VDW BOUNDARY MISC KINETIC TOTAL TEMP POTENTIAL TOTAL3 TEMPAVG PRESSURE GPRESSURE VOLUME PRESSAVG GPRESSAVG
ENERGY: 600000 0.0000 0.0000 0.0000 0.0000 -13129.4161 2130.1284 0.0000 0.0000 1058.6760 -9940.6117 181.7639 -10999.2877 -9938.5824 181.7639 138.6009 190.4593 28871.1822 138.6009 190.4593
ENERGY: 700000 0.0000 0.0000 0.0000 0.0000 -12398.6922 1850.7568 0.0000 0.0000 1223.8204 -9324.1149 210.1175 -10547.9353 -9321.6756 209.5928 -379.0698 -331.3934 28791.8922 4.4215 4.2858
TCL: Running 100000 steps at 240 kelvin.
TCL: Setting parameter langevinTemp to 240
TCL: Running for 100000 steps
ETITLE: TS BOND ANGLE DIHED IMPRP ELECT VDW BOUNDARY MISC KINETIC TOTAL TEMP POTENTIAL TOTAL3 TEMPAVG PRESSURE GPRESSURE VOLUME PRESSAVG GPRESSAVG
ENERGY: 700000 0.0000 0.0000 0.0000 0.0000 -12398.6922 1850.7568 0.0000 0.0000 1223.1781 -9324.7572 210.0072 -10547.9353 -9323.1076 210.0072 -412.0051 -331.2706 28791.8922 -412.0051 -331.2706
ENERGY: 800000 0.0000 0.0000 0.0000 0.0000 -11825.2513 1722.3781 0.0000 0.0000 1400.6505 -8702.2227 240.4775 -10102.8732 -8700.7013 240.3231 -139.2146 -111.4977 29409.7486 3.3903 3.4687
TCL: Running 100000 steps at 270 kelvin.
TCL: Setting parameter langevinTemp to 270
TCL: Running for 100000 steps
ETITLE: TS BOND ANGLE DIHED IMPRP ELECT VDW BOUNDARY MISC KINETIC TOTAL TEMP POTENTIAL TOTAL3 TEMPAVG PRESSURE GPRESSURE VOLUME PRESSAVG GPRESSAVG
ENERGY: 800000 0.0000 0.0000 0.0000 0.0000 -11825.2513 1722.3781 0.0000 0.0000 1399.9454 -8702.9278 240.3564 -10102.8732 -8700.4272 240.3564 -189.2739 -112.2965 29409.7486 -189.2739 -112.2965
ENERGY: 900000 0.0000 0.0000 0.0000 0.0000 -11299.3825 1601.6799 0.0000 0.0000 1578.3105 -8119.3921 270.9799 -9697.7026 -8117.1545 270.2350 268.6646 389.5446 29331.1874 2.2021 2.0480
TCL: Running 1000000 steps at 300 kelvin.
TCL: Setting parameter langevinTemp to 300
TCL: Running for 1000000 steps
ETITLE: TS BOND ANGLE DIHED IMPRP ELECT VDW BOUNDARY MISC KINETIC TOTAL TEMP POTENTIAL TOTAL3 TEMPAVG PRESSURE GPRESSURE VOLUME PRESSAVG GPRESSAVG
ENERGY: 900000 0.0000 0.0000 0.0000 0.0000 -11299.3825 1601.6799 0.0000 0.0000 1577.5179 -8120.1847 270.8438 -9697.7026 -8117.4887 270.8438 307.2268 388.2543 29331.1874 307.2268 388.2543
ENERGY: 1100000 0.0000 0.0000 0.0000 0.0000 -10690.2634 1422.0790 0.0000 0.0000 1738.2584 -7529.9260 298.4413 -9268.1844 -7525.6829 300.1542 -77.5446 -36.9018 30559.8495 3.4583 3.4917
ENERGY: 1300000 0.0000 0.0000 0.0000 0.0000 -10746.5916 1461.8845 0.0000 0.0000 1769.7446 -7514.9625 303.8472 -9284.7071 -7510.6400 300.3850 507.6654 608.6341 29907.7894 3.0874 3.0927
ENERGY: 1500000 0.0000 0.0000 0.0000 0.0000 -10759.8967 1439.0912 0.0000 0.0000 1723.7597 -7597.0458 295.9520 -9320.8055 -7595.0027 299.3222 173.9390 223.3967 30123.2562 4.8425 4.9174
ENERGY: 1700000 0.0000 0.0000 0.0000 0.0000 -10719.9995 1442.9428 0.0000 0.0000 1743.9164 -7533.1404 299.4127 -9277.0568 -7532.2542 300.3577 -124.5066 -61.8195 30717.7199 4.8684 4.8524
ENERGY: 1900000 0.0000 0.0000 0.0000 0.0000 -10776.7000 1506.3734 0.0000 0.0000 1687.2416 -7583.0850 289.6822 -9270.3266 -7578.9130 300.1485 539.5706 561.1685 30344.3852 3.0827 3.0041
TCL: Exiting due to exit command.
