Info: SIMULATION PARAMETERS:
Info: TIMESTEP               2
Info: NUMBER OF STEPS        0
Info: STEPS PER CYCLE        10
Info: PERIODIC CELL BASIS 1  36.005 0 0
Info: PERIODIC CELL BASIS 2  0 35.267 0
Info: PERIODIC CELL BASIS 3  0 0 34.933
Info: PERIODIC CELL CENTER   0 0 0
Info: WRAPPING WATERS AROUND PERIODIC BOUNDARIES ON OUTPUT.
Info: WRAPPING ALL CLUSTERS AROUND PERIODIC BOUNDARIES ON OUTPUT.
Info: FIRST LDB TIMESTEP     50
Info: LAST LDB TIMESTEP     -1
Info: HOM BACKGROUND SCALING 1
Info: PME BACKGROUND SCALING 1
Info: MIN ATOMS PER PATCH    40
Info: EMPTY PATCH LOAD       40 ATOMS
Info: INITIAL TEMPERATURE    300
Info: CENTER OF MASS MOVING INITIALLY? NO
Info: DIELECTRIC             1
Info: EXCLUDE                SCALED ONE-FOUR
Info: 1-4 ELECTROSTATICS SCALED BY 0.833333
Info: MODIFIED 1-4 VDW PARAMETERS WILL BE USED
Info: DCD FILENAME           mobley_6714389_equil.dcd
Info: DCD FREQUENCY          100000
Info: DCD FIRST STEP         100000
Info: DCD FILE WILL CONTAIN UNIT CELL DATA
Info: XST FILENAME           mobley_6714389_equil.xst
Info: XST FREQUENCY          100000
Info: NO VELOCITY DCD OUTPUT
Info: NO FORCE DCD OUTPUT
Info: OUTPUT FILENAME        mobley_6714389_equil
Info: BINARY OUTPUT FILES WILL BE USED
Info: RESTART FILENAME       mobley_6714389_equil.restart
Info: RESTART FREQUENCY      100000
Info: BINARY RESTART FILES WILL BE USED
Info: CUTOFF                 9
Info: PAIRLIST DISTANCE      11
Info: PAIRLIST SHRINK RATE   0.01
Info: PAIRLIST GROW RATE     0.01
Info: PAIRLIST TRIGGER       0.3
Info: PAIRLISTS PER CYCLE    2
Info: PAIRLISTS ENABLED
Info: MARGIN                 8
Info: HYDROGEN GROUP CUTOFF  2.5
Info: PATCH DIMENSION        21.5
Info: ENERGY OUTPUT STEPS    100000
Info: ENERGY EVALUATION STEPS    100000
Info: OUTPUT ENERGY PRECISION 4
Info: CROSSTERM ENERGY INCLUDED IN DIHEDRAL
Info: TIMING OUTPUT STEPS    1000000
Info: PRESSURE OUTPUT STEPS  100000
Info: FIXED ATOMS ACTIVE
Info: LANGEVIN DYNAMICS ACTIVE
Info: LANGEVIN TEMPERATURE   30
Info: LANGEVIN USING BBK INTEGRATOR
Info: LANGEVIN DAMPING COEFFICIENT IS 1 INVERSE PS
Info: LANGEVIN DYNAMICS APPLIED TO HYDROGENS
Info: LANGEVIN PISTON PRESSURE CONTROL ACTIVE
Info:        TARGET PRESSURE IS 1.01325 BAR
Info:     OSCILLATION PERIOD IS 50 FS
Info:             DECAY TIME IS 25 FS
Info:     PISTON TEMPERATURE IS 300 K
Info:       PRESSURE CONTROL IS GROUP-BASED
Info:    INITIAL STRAIN RATE IS 0 0 0
Info:       CELL FLUCTUATION IS ISOTROPIC
Info: PARTICLE MESH EWALD (PME) ACTIVE
Info: PME TOLERANCE               1e-06
Info: PME EWALD COEFFICIENT       0.348832
Info: PME INTERPOLATION ORDER     4
Info: PME GRID DIMENSIONS         40 36 36
Info: PME MAXIMUM GRID SPACING    1
Info: FULL ELECTROSTATIC EVALUATION FREQUENCY      2
Info: USING VERLET I (r-RESPA) MTS SCHEME.
Info: C1 SPLITTING OF LONG RANGE ELECTROSTATICS
Info: PLACING ATOMS IN PATCHES BY HYDROGEN GROUPS
Info: RIGID BONDS TO HYDROGEN : ALL
Info:         ERROR TOLERANCE : 1e-08
Info:          MAX ITERATIONS : 100
Info: RIGID WATER USING SETTLE ALGORITHM
Info: RANDOM NUMBER SEED     1743679687
Info: USE HYDROGEN BONDS?    NO
Info: Using AMBER format force field!
Info: AMBER PARM FILE        mobley_6714389.prmtop
Info: COORDINATE PDB         mobley_6714389.pdb
Info: Exclusions will be read from PARM file!
Info: SCNB (VDW SCALING)     2
Info: USING ARITHMETIC MEAN TO COMBINE L-J SIGMA PARAMETERS
Info: BINARY COORDINATES     mobley_6714389_min.coor
Info: SUMMARY OF PARAMETERS:
Info: 5 BONDS
Info: 4 ANGLES
Info:   4 HARMONIC
Info:   0 COSINE-BASED
Info: 1 DIHEDRAL
Info: 0 IMPROPER
Info: 0 CROSSTERM
Info: 0 VDW
Info: 21 VDW_PAIRS
Info: 0 NBTHOLE_PAIRS
Info: STRUCTURE SUMMARY:
Info: 2929 ATOMS
Info: 2928 BONDS
Info: 9 ANGLES
Info: 6 DIHEDRALS
Info: 0 IMPROPERS
Info: 0 CROSSTERMS
Info: 2943 EXCLUSIONS
Info: 7 FIXED ATOMS
Info: 2927 RIGID BONDS
Info: 5 RIGID BONDS BETWEEN FIXED ATOMS
Info: 5844 DEGREES OF FREEDOM
Info: 976 HYDROGEN GROUPS
Info: 4 ATOMS IN LARGEST HYDROGEN GROUP
Info: 976 MIGRATION GROUPS
Info: 4 ATOMS IN LARGEST MIGRATION GROUP
Info: 2 HYDROGEN GROUPS WITH ALL ATOMS FIXED
Info: TOTAL MASS = 17578.6 amu
Info: TOTAL CHARGE = 0.000100093 e
Info: MASS DENSITY = 0.658078 g/cm^3
Info: ATOM DENSITY = 0.0660317 atoms/A^3
Info: ADDED 0 IMPLICIT EXCLUSIONS
Info: NONBONDED TABLE R-SQUARED SPACING: 0.0625
Info: NONBONDED TABLE SIZE: 705 POINTS
Info: REMOVING COM VELOCITY 0.0340651 0.261369 0.167022
TCL: Running for 100000 steps
ETITLE: TS BOND ANGLE DIHED IMPRP ELECT VDW BOUNDARY MISC KINETIC TOTAL TEMP POTENTIAL TOTAL3 TEMPAVG PRESSURE GPRESSURE VOLUME PRESSAVG GPRESSAVG
ENERGY: 0 0.0000 0.0000 0.0000 0.0000 -13701.7447 2438.0537 0.0000 0.0000 1745.1607 -9518.5303 300.5492 -11263.6910 -9518.1715 300.5492 632.8458 664.6749 44357.5159 632.8458 664.6749
ENERGY: 100000 0.0000 0.0000 0.0000 0.0000 -14149.9444 2424.9196 0.0000 0.0000 178.8236 -11546.2012 30.7968 -11725.0248 -11545.6197 30.8496 -96.4880 -61.6330 28602.8663 3.7267 3.7389
TCL: Running 100000 steps at 60 kelvin.
TCL: Setting parameter langevinTemp to 60
TCL: Running for 100000 steps
ETITLE: TS BOND ANGLE DIHED IMPRP ELECT VDW BOUNDARY MISC KINETIC TOTAL TEMP POTENTIAL TOTAL3 TEMPAVG PRESSURE GPRESSURE VOLUME PRESSAVG GPRESSAVG
ENERGY: 100000 0.0000 0.0000 0.0000 0.0000 -14149.9444 2424.9196 0.0000 0.0000 178.7364 -11546.2885 30.7817 -11725.0248 -11545.8796 30.7817 -108.8959 -61.4030 28602.8663 -108.8959 -61.4030
ENERGY: 200000 0.0000 0.0000 0.0000 0.0000 -14179.0497 2486.4486 0.0000 0.0000 344.0215 -11348.5796 59.2469 -11692.6011 -11347.7423 59.8977 805.0199 841.9495 27857.5970 4.5809 4.5621
TCL: Running 100000 steps at 90 kelvin.
TCL: Setting parameter langevinTemp to 90
TCL: Running for 100000 steps
ETITLE: TS BOND ANGLE DIHED IMPRP ELECT VDW BOUNDARY MISC KINETIC TOTAL TEMP POTENTIAL TOTAL3 TEMPAVG PRESSURE GPRESSURE VOLUME PRESSAVG GPRESSAVG
ENERGY: 200000 0.0000 0.0000 0.0000 0.0000 -14179.0497 2486.4486 0.0000 0.0000 343.8458 -11348.7553 59.2167 -11692.6011 -11348.2689 59.2167 793.7280 841.9538 27857.5970 793.7280 841.9538
ENERGY: 300000 0.0000 0.0000 0.0000 0.0000 -13983.1114 2366.2970 0.0000 0.0000 517.6139 -11099.2004 89.1428 -11616.8144 -11097.4125 90.0904 137.4962 202.3869 27739.0006 5.1547 4.9866
TCL: Running 100000 steps at 120 kelvin.
TCL: Setting parameter langevinTemp to 120
TCL: Running for 100000 steps
ETITLE: TS BOND ANGLE DIHED IMPRP ELECT VDW BOUNDARY MISC KINETIC TOTAL TEMP POTENTIAL TOTAL3 TEMPAVG PRESSURE GPRESSURE VOLUME PRESSAVG GPRESSAVG
ENERGY: 300000 0.0000 0.0000 0.0000 0.0000 -13983.1114 2366.2970 0.0000 0.0000 517.3512 -11099.4631 89.0975 -11616.8144 -11098.1760 89.0975 154.1818 202.5468 27739.0006 154.1818 202.5468
ENERGY: 400000 0.0000 0.0000 0.0000 0.0000 -13686.8624 2191.1394 0.0000 0.0000 721.0863 -10774.6367 124.1845 -11495.7230 -10772.5916 120.1869 -743.9874 -699.4610 27827.0412 4.9088 4.9415
TCL: Running 100000 steps at 150 kelvin.
TCL: Setting parameter langevinTemp to 150
TCL: Running for 100000 steps
ETITLE: TS BOND ANGLE DIHED IMPRP ELECT VDW BOUNDARY MISC KINETIC TOTAL TEMP POTENTIAL TOTAL3 TEMPAVG PRESSURE GPRESSURE VOLUME PRESSAVG GPRESSAVG
ENERGY: 400000 0.0000 0.0000 0.0000 0.0000 -13686.8624 2191.1394 0.0000 0.0000 720.7284 -10774.9947 124.1229 -11495.7230 -10773.6772 124.1229 -743.2672 -699.6578 27827.0412 -743.2672 -699.6578
ENERGY: 500000 0.0000 0.0000 0.0000 0.0000 -13385.3046 2099.3425 0.0000 0.0000 847.4934 -10438.4688 145.9542 -11285.9622 -10436.2431 149.8177 -1017.4232 -928.7665 28350.1662 4.0182 3.8057
TCL: Running 100000 steps at 180 kelvin.
TCL: Setting parameter langevinTemp to 180
TCL: Running for 100000 steps
ETITLE: TS BOND ANGLE DIHED IMPRP ELECT VDW BOUNDARY MISC KINETIC TOTAL TEMP POTENTIAL TOTAL3 TEMPAVG PRESSURE GPRESSURE VOLUME PRESSAVG GPRESSAVG
ENERGY: 500000 0.0000 0.0000 0.0000 0.0000 -13385.3046 2099.3425 0.0000 0.0000 847.0786 -10438.8836 145.8827 -11285.9622 -10437.3569 145.8827 -989.9549 -927.2568 28350.1662 -989.9549 -927.2568
ENERGY: 600000 0.0000 0.0000 0.0000 0.0000 -13262.9337 2187.4040 0.0000 0.0000 1026.3343 -10049.1954 176.7539 -11075.5297 -10046.0799 179.4873 117.0843 116.1923 29112.7171 3.7056 3.7380
TCL: Running 100000 steps at 210 kelvin.
TCL: Setting parameter langevinTemp to 210
TCL: Running for 100000 steps
ETITLE: TS BOND ANGLE DIHED IMPRP ELECT VDW BOUNDARY MISC KINETIC TOTAL TEMP POTENTIAL TOTAL3 TEMPAVG PRESSURE GPRESSURE VOLUME PRESSAVG GPRESSAVG
ENERGY: 600000 0.0000 0.0000 0.0000 0.0000 -13262.9337 2187.4040 0.0000 0.0000 1025.8138 -10049.7159 176.6643 -11075.5297 -10048.1944 176.6643 75.8178 117.5846 29112.7171 75.8178 117.5846
ENERGY: 700000 0.0000 0.0000 0.0000 0.0000 -12533.6087 1954.7114 0.0000 0.0000 1247.6086 -9331.2887 214.8615 -10578.8973 -9326.5217 209.8095 282.7731 365.3829 28700.1185 4.1530 4.0615
TCL: Running 100000 steps at 240 kelvin.
TCL: Setting parameter langevinTemp to 240
TCL: Running for 100000 steps
ETITLE: TS BOND ANGLE DIHED IMPRP ELECT VDW BOUNDARY MISC KINETIC TOTAL TEMP POTENTIAL TOTAL3 TEMPAVG PRESSURE GPRESSURE VOLUME PRESSAVG GPRESSAVG
ENERGY: 700000 0.0000 0.0000 0.0000 0.0000 -12533.6087 1954.7114 0.0000 0.0000 1247.0016 -9331.8957 214.7569 -10578.8973 -9329.4601 214.7569 287.6539 366.8862 28700.1185 287.6539 366.8862
ENERGY: 800000 0.0000 0.0000 0.0000 0.0000 -11820.6244 1692.9329 0.0000 0.0000 1402.5021 -8725.1894 241.5370 -10127.6915 -8721.6933 240.3144 -183.4889 -116.4505 28827.2095 3.3108 3.2775
TCL: Running 100000 steps at 270 kelvin.
TCL: Setting parameter langevinTemp to 270
TCL: Running for 100000 steps
ETITLE: TS BOND ANGLE DIHED IMPRP ELECT VDW BOUNDARY MISC KINETIC TOTAL TEMP POTENTIAL TOTAL3 TEMPAVG PRESSURE GPRESSURE VOLUME PRESSAVG GPRESSAVG
ENERGY: 800000 0.0000 0.0000 0.0000 0.0000 -11820.6244 1692.9329 0.0000 0.0000 1401.8042 -8725.8873 241.4168 -10127.6915 -8723.7713 241.4168 -213.1545 -116.8404 28827.2095 -213.1545 -116.8404
ENERGY: 900000 0.0000 0.0000 0.0000 0.0000 -11287.9490 1590.4715 0.0000 0.0000 1558.3755 -8139.1021 268.3813 -9697.4776 -8135.5360 270.8616 121.3854 263.1792 29088.5969 1.1675 1.3607
TCL: Running 1000000 steps at 300 kelvin.
TCL: Setting parameter langevinTemp to 300
TCL: Running for 1000000 steps
ETITLE: TS BOND ANGLE DIHED IMPRP ELECT VDW BOUNDARY MISC KINETIC TOTAL TEMP POTENTIAL TOTAL3 TEMPAVG PRESSURE GPRESSURE VOLUME PRESSAVG GPRESSAVG
ENERGY: 900000 0.0000 0.0000 0.0000 0.0000 -11287.9490 1590.4715 0.0000 0.0000 1557.5806 -8139.8969 268.2444 -9697.4776 -8137.5068 268.2444 170.5180 263.1351 29088.5969 170.5180 263.1351
ENERGY: 1100000 0.0000 0.0000 0.0000 0.0000 -10714.9889 1403.3958 0.0000 0.0000 1727.0385 -7584.5545 297.4282 -9311.5930 -7582.5274 300.2368 -276.6858 -182.5432 29992.6161 3.7620 3.7357
ENERGY: 1300000 0.0000 0.0000 0.0000 0.0000 -10541.3038 1326.2973 0.0000 0.0000 1710.0961 -7504.9104 294.5104 -9215.0065 -7497.8291 300.2880 -730.2464 -647.4700 30419.9169 2.2982 2.2721
ENERGY: 1500000 0.0000 0.0000 0.0000 0.0000 -10832.7563 1479.1184 0.0000 0.0000 1744.4643 -7609.1736 300.4293 -9353.6379 -7605.7451 300.1236 148.6879 276.7807 29883.8428 2.0865 2.1240
ENERGY: 1700000 0.0000 0.0000 0.0000 0.0000 -10741.7410 1452.6823 0.0000 0.0000 1807.1634 -7481.8953 311.2272 -9289.0587 -7477.3546 300.6636 127.6697 188.2287 30152.2878 4.0677 4.0093
ENERGY: 1900000 0.0000 0.0000 0.0000 0.0000 -10689.9454 1406.1353 0.0000 0.0000 1710.0688 -7573.7413 294.5057 -9283.8102 -7570.5775 299.4125 -22.4296 57.9783 29749.6061 2.0324 1.9230
TCL: Exiting due to exit command.
