Info: SIMULATION PARAMETERS:
Info: TIMESTEP               2
Info: NUMBER OF STEPS        0
Info: STEPS PER CYCLE        10
Info: PERIODIC CELL BASIS 1  36.005 0 0
Info: PERIODIC CELL BASIS 2  0 35.267 0
Info: PERIODIC CELL BASIS 3  0 0 34.954
Info: PERIODIC CELL CENTER   0 0 0
Info: WRAPPING WATERS AROUND PERIODIC BOUNDARIES ON OUTPUT.
Info: WRAPPING ALL CLUSTERS AROUND PERIODIC BOUNDARIES ON OUTPUT.
Info: FIRST LDB TIMESTEP     50
Info: LAST LDB TIMESTEP     -1
Info: HOM BACKGROUND SCALING 1
Info: PME BACKGROUND SCALING 1
Info: MIN ATOMS PER PATCH    40
Info: EMPTY PATCH LOAD       40 ATOMS
Info: INITIAL TEMPERATURE    300
Info: CENTER OF MASS MOVING INITIALLY? NO
Info: DIELECTRIC             1
Info: EXCLUDE                SCALED ONE-FOUR
Info: 1-4 ELECTROSTATICS SCALED BY 0.833333
Info: MODIFIED 1-4 VDW PARAMETERS WILL BE USED
Info: DCD FILENAME           mobley_9029594_equil.dcd
Info: DCD FREQUENCY          100000
Info: DCD FIRST STEP         100000
Info: DCD FILE WILL CONTAIN UNIT CELL DATA
Info: XST FILENAME           mobley_9029594_equil.xst
Info: XST FREQUENCY          100000
Info: NO VELOCITY DCD OUTPUT
Info: NO FORCE DCD OUTPUT
Info: OUTPUT FILENAME        mobley_9029594_equil
Info: BINARY OUTPUT FILES WILL BE USED
Info: RESTART FILENAME       mobley_9029594_equil.restart
Info: RESTART FREQUENCY      100000
Info: BINARY RESTART FILES WILL BE USED
Info: CUTOFF                 9
Info: PAIRLIST DISTANCE      11
Info: PAIRLIST SHRINK RATE   0.01
Info: PAIRLIST GROW RATE     0.01
Info: PAIRLIST TRIGGER       0.3
Info: PAIRLISTS PER CYCLE    2
Info: PAIRLISTS ENABLED
Info: MARGIN                 8
Info: HYDROGEN GROUP CUTOFF  2.5
Info: PATCH DIMENSION        21.5
Info: ENERGY OUTPUT STEPS    100000
Info: ENERGY EVALUATION STEPS    100000
Info: OUTPUT ENERGY PRECISION 4
Info: CROSSTERM ENERGY INCLUDED IN DIHEDRAL
Info: TIMING OUTPUT STEPS    1000000
Info: PRESSURE OUTPUT STEPS  100000
Info: FIXED ATOMS ACTIVE
Info: LANGEVIN DYNAMICS ACTIVE
Info: LANGEVIN TEMPERATURE   30
Info: LANGEVIN USING BBK INTEGRATOR
Info: LANGEVIN DAMPING COEFFICIENT IS 1 INVERSE PS
Info: LANGEVIN DYNAMICS APPLIED TO HYDROGENS
Info: LANGEVIN PISTON PRESSURE CONTROL ACTIVE
Info:        TARGET PRESSURE IS 1.01325 BAR
Info:     OSCILLATION PERIOD IS 50 FS
Info:             DECAY TIME IS 25 FS
Info:     PISTON TEMPERATURE IS 300 K
Info:       PRESSURE CONTROL IS GROUP-BASED
Info:    INITIAL STRAIN RATE IS 0 0 0
Info:       CELL FLUCTUATION IS ISOTROPIC
Info: PARTICLE MESH EWALD (PME) ACTIVE
Info: PME TOLERANCE               1e-06
Info: PME EWALD COEFFICIENT       0.348832
Info: PME INTERPOLATION ORDER     4
Info: PME GRID DIMENSIONS         40 36 36
Info: PME MAXIMUM GRID SPACING    1
Info: FULL ELECTROSTATIC EVALUATION FREQUENCY      2
Info: USING VERLET I (r-RESPA) MTS SCHEME.
Info: C1 SPLITTING OF LONG RANGE ELECTROSTATICS
Info: PLACING ATOMS IN PATCHES BY HYDROGEN GROUPS
Info: RIGID BONDS TO HYDROGEN : ALL
Info:         ERROR TOLERANCE : 1e-08
Info:          MAX ITERATIONS : 100
Info: RIGID WATER USING SETTLE ALGORITHM
Info: RANDOM NUMBER SEED     1743678980
Info: USE HYDROGEN BONDS?    NO
Info: Using AMBER format force field!
Info: AMBER PARM FILE        mobley_9029594.prmtop
Info: COORDINATE PDB         mobley_9029594.pdb
Info: Exclusions will be read from PARM file!
Info: SCNB (VDW SCALING)     2
Info: USING ARITHMETIC MEAN TO COMBINE L-J SIGMA PARAMETERS
Info: BINARY COORDINATES     mobley_9029594_min.coor
Info: SUMMARY OF PARAMETERS:
Info: 4 BONDS
Info: 2 ANGLES
Info:   2 HARMONIC
Info:   0 COSINE-BASED
Info: 0 DIHEDRAL
Info: 0 IMPROPER
Info: 0 CROSSTERM
Info: 0 VDW
Info: 15 VDW_PAIRS
Info: 0 NBTHOLE_PAIRS
Info: STRUCTURE SUMMARY:
Info: 2933 ATOMS
Info: 2932 BONDS
Info: 6 ANGLES
Info: 0 DIHEDRALS
Info: 0 IMPROPERS
Info: 0 CROSSTERMS
Info: 2938 EXCLUSIONS
Info: 5 FIXED ATOMS
Info: 2931 RIGID BONDS
Info: 3 RIGID BONDS BETWEEN FIXED ATOMS
Info: 5856 DEGREES OF FREEDOM
Info: 978 HYDROGEN GROUPS
Info: 4 ATOMS IN LARGEST HYDROGEN GROUP
Info: 978 MIGRATION GROUPS
Info: 4 ATOMS IN LARGEST MIGRATION GROUP
Info: 2 HYDROGEN GROUPS WITH ALL ATOMS FIXED
Info: TOTAL MASS = 17617.7 amu
Info: TOTAL CHARGE = 7.45058e-09 e
Info: MASS DENSITY = 0.659142 g/cm^3
Info: ATOM DENSITY = 0.0660821 atoms/A^3
Info: ADDED 0 IMPLICIT EXCLUSIONS
Info: NONBONDED TABLE R-SQUARED SPACING: 0.0625
Info: NONBONDED TABLE SIZE: 705 POINTS
Info: REMOVING COM VELOCITY 0.0901091 0.0696927 -0.106176
TCL: Running for 100000 steps
ETITLE: TS BOND ANGLE DIHED IMPRP ELECT VDW BOUNDARY MISC KINETIC TOTAL TEMP POTENTIAL TOTAL3 TEMPAVG PRESSURE GPRESSURE VOLUME PRESSAVG GPRESSAVG
ENERGY: 0 0.0000 0.0000 0.0000 0.0000 -13620.6385 2410.8933 0.0000 0.0000 1730.5241 -9479.2210 297.4178 -11209.7452 -9478.8908 297.4178 459.0953 492.2353 44384.1815 459.0953 492.2353
ENERGY: 100000 0.0000 0.0000 0.0000 0.0000 -13990.5551 2310.2853 0.0000 0.0000 175.4878 -11504.7820 30.1603 -11680.2698 -11504.4582 30.8828 -1440.8841 -1401.2215 29563.5943 4.7348 4.7812
TCL: Running 100000 steps at 60 kelvin.
TCL: Setting parameter langevinTemp to 60
TCL: Running for 100000 steps
ETITLE: TS BOND ANGLE DIHED IMPRP ELECT VDW BOUNDARY MISC KINETIC TOTAL TEMP POTENTIAL TOTAL3 TEMPAVG PRESSURE GPRESSURE VOLUME PRESSAVG GPRESSAVG
ENERGY: 100000 0.0000 0.0000 0.0000 0.0000 -13990.5551 2310.2853 0.0000 0.0000 175.3981 -11504.8717 30.1449 -11680.2698 -11504.4977 30.1449 -1458.8808 -1401.2710 29563.5943 -1458.8808 -1401.2710
ENERGY: 200000 0.0000 0.0000 0.0000 0.0000 -14122.9002 2502.1804 0.0000 0.0000 358.7245 -11261.9953 61.6525 -11620.7198 -11260.9435 59.9683 616.5334 654.7301 28813.1016 3.8194 3.7230
TCL: Running 100000 steps at 90 kelvin.
TCL: Setting parameter langevinTemp to 90
TCL: Running for 100000 steps
ETITLE: TS BOND ANGLE DIHED IMPRP ELECT VDW BOUNDARY MISC KINETIC TOTAL TEMP POTENTIAL TOTAL3 TEMPAVG PRESSURE GPRESSURE VOLUME PRESSAVG GPRESSAVG
ENERGY: 200000 0.0000 0.0000 0.0000 0.0000 -14122.9002 2502.1804 0.0000 0.0000 358.5435 -11262.1763 61.6213 -11620.7198 -11261.6460 61.6213 602.0250 654.8187 28813.1016 602.0250 654.8187
ENERGY: 300000 0.0000 0.0000 0.0000 0.0000 -13807.3637 2280.3230 0.0000 0.0000 519.4656 -11007.5751 89.2783 -11527.0407 -11005.3171 89.8705 -964.0829 -921.3076 29216.8072 2.0145 2.0355
TCL: Running 100000 steps at 120 kelvin.
TCL: Setting parameter langevinTemp to 120
TCL: Running for 100000 steps
ETITLE: TS BOND ANGLE DIHED IMPRP ELECT VDW BOUNDARY MISC KINETIC TOTAL TEMP POTENTIAL TOTAL3 TEMPAVG PRESSURE GPRESSURE VOLUME PRESSAVG GPRESSAVG
ENERGY: 300000 0.0000 0.0000 0.0000 0.0000 -13807.3637 2280.3230 0.0000 0.0000 519.2059 -11007.8348 89.2337 -11527.0407 -11006.7395 89.2337 -970.4274 -920.1731 29216.8072 -970.4274 -920.1731
ENERGY: 400000 0.0000 0.0000 0.0000 0.0000 -13635.1911 2248.0517 0.0000 0.0000 698.1788 -10688.9606 119.9930 -11387.1394 -10686.6322 119.8316 -722.3176 -673.1494 29193.1170 3.4521 3.3937
TCL: Running 100000 steps at 150 kelvin.
TCL: Setting parameter langevinTemp to 150
TCL: Running for 100000 steps
ETITLE: TS BOND ANGLE DIHED IMPRP ELECT VDW BOUNDARY MISC KINETIC TOTAL TEMP POTENTIAL TOTAL3 TEMPAVG PRESSURE GPRESSURE VOLUME PRESSAVG GPRESSAVG
ENERGY: 400000 0.0000 0.0000 0.0000 0.0000 -13635.1911 2248.0517 0.0000 0.0000 697.8449 -10689.2945 119.9356 -11387.1394 -10688.0921 119.9356 -726.7606 -672.4634 29193.1170 -726.7606 -672.4634
ENERGY: 500000 0.0000 0.0000 0.0000 0.0000 -13441.3385 2207.1879 0.0000 0.0000 861.3590 -10372.7916 148.0381 -11234.1507 -10370.6163 149.8218 -533.6400 -414.2214 28969.5525 4.0555 3.9474
TCL: Running 100000 steps at 180 kelvin.
TCL: Setting parameter langevinTemp to 180
TCL: Running for 100000 steps
ETITLE: TS BOND ANGLE DIHED IMPRP ELECT VDW BOUNDARY MISC KINETIC TOTAL TEMP POTENTIAL TOTAL3 TEMPAVG PRESSURE GPRESSURE VOLUME PRESSAVG GPRESSAVG
ENERGY: 500000 0.0000 0.0000 0.0000 0.0000 -13441.3385 2207.1879 0.0000 0.0000 860.9224 -10373.2282 147.9631 -11234.1507 -10371.4297 147.9631 -467.6535 -414.9779 28969.5525 -467.6535 -414.9779
ENERGY: 600000 0.0000 0.0000 0.0000 0.0000 -13104.3832 2123.8126 0.0000 0.0000 1066.8369 -9913.7338 183.3527 -10980.5707 -9909.9460 179.6560 -33.0420 3.7581 28808.1532 4.2184 4.1509
TCL: Running 100000 steps at 210 kelvin.
TCL: Setting parameter langevinTemp to 210
TCL: Running for 100000 steps
ETITLE: TS BOND ANGLE DIHED IMPRP ELECT VDW BOUNDARY MISC KINETIC TOTAL TEMP POTENTIAL TOTAL3 TEMPAVG PRESSURE GPRESSURE VOLUME PRESSAVG GPRESSAVG
ENERGY: 600000 0.0000 0.0000 0.0000 0.0000 -13104.3832 2123.8126 0.0000 0.0000 1066.3057 -9914.2650 183.2614 -10980.5707 -9911.9871 183.2614 -46.1083 5.8029 28808.1532 -46.1083 5.8029
ENERGY: 700000 0.0000 0.0000 0.0000 0.0000 -12270.1585 1843.0720 0.0000 0.0000 1255.8239 -9171.2626 215.8331 -10427.0865 -9167.6760 210.2822 -282.2993 -157.3525 28522.2704 2.6066 2.6306
TCL: Running 100000 steps at 240 kelvin.
TCL: Setting parameter langevinTemp to 240
TCL: Running for 100000 steps
ETITLE: TS BOND ANGLE DIHED IMPRP ELECT VDW BOUNDARY MISC KINETIC TOTAL TEMP POTENTIAL TOTAL3 TEMPAVG PRESSURE GPRESSURE VOLUME PRESSAVG GPRESSAVG
ENERGY: 700000 0.0000 0.0000 0.0000 0.0000 -12270.1585 1843.0720 0.0000 0.0000 1255.2131 -9171.8734 215.7281 -10427.0865 -9170.2193 215.7281 -228.7506 -156.7650 28522.2704 -228.7506 -156.7650
ENERGY: 800000 0.0000 0.0000 0.0000 0.0000 -11750.5266 1631.8805 0.0000 0.0000 1396.3302 -8722.3159 239.9813 -10118.6461 -8715.9183 240.1311 -1141.8781 -1044.5635 29120.0852 4.2252 4.0278
TCL: Running 100000 steps at 270 kelvin.
TCL: Setting parameter langevinTemp to 270
TCL: Running for 100000 steps
ETITLE: TS BOND ANGLE DIHED IMPRP ELECT VDW BOUNDARY MISC KINETIC TOTAL TEMP POTENTIAL TOTAL3 TEMPAVG PRESSURE GPRESSURE VOLUME PRESSAVG GPRESSAVG
ENERGY: 800000 0.0000 0.0000 0.0000 0.0000 -11750.5266 1631.8805 0.0000 0.0000 1395.6182 -8723.0279 239.8590 -10118.6461 -8719.9011 239.8590 -1124.1744 -1044.0912 29120.0852 -1124.1744 -1044.0912
ENERGY: 900000 0.0000 0.0000 0.0000 0.0000 -11283.0156 1563.0675 0.0000 0.0000 1547.1191 -8172.8291 265.8968 -9719.9482 -8168.7537 269.1245 -382.7453 -278.2583 29690.3520 2.3406 2.1177
TCL: Running 1000000 steps at 300 kelvin.
TCL: Setting parameter langevinTemp to 300
TCL: Running for 1000000 steps
ETITLE: TS BOND ANGLE DIHED IMPRP ELECT VDW BOUNDARY MISC KINETIC TOTAL TEMP POTENTIAL TOTAL3 TEMPAVG PRESSURE GPRESSURE VOLUME PRESSAVG GPRESSAVG
ENERGY: 900000 0.0000 0.0000 0.0000 0.0000 -11283.0156 1563.0675 0.0000 0.0000 1546.3896 -8173.5586 265.7714 -9719.9482 -8171.5444 265.7714 -365.4372 -278.3059 29690.3520 -365.4372 -278.3059
ENERGY: 1100000 0.0000 0.0000 0.0000 0.0000 -10734.5617 1490.1732 0.0000 0.0000 1772.6465 -7471.7420 304.6572 -9244.3884 -7468.9462 300.5012 535.1819 606.9138 29853.4199 1.5068 1.3826
ENERGY: 1300000 0.0000 0.0000 0.0000 0.0000 -10797.5977 1499.7703 0.0000 0.0000 1795.1098 -7502.7176 308.5179 -9297.8274 -7497.6039 300.7565 53.2042 88.9706 30714.0523 4.5900 4.6912
ENERGY: 1500000 0.0000 0.0000 0.0000 0.0000 -10843.1046 1560.3970 0.0000 0.0000 1752.5158 -7530.1918 301.1974 -9282.7076 -7528.8722 299.8717 866.0786 930.2317 29899.3855 3.4157 3.4627
ENERGY: 1700000 0.0000 0.0000 0.0000 0.0000 -10644.8543 1429.4016 0.0000 0.0000 1791.4167 -7424.0360 307.8832 -9215.4527 -7420.4264 300.2025 231.0789 299.9682 30006.0334 2.0693 2.1897
ENERGY: 1900000 0.0000 0.0000 0.0000 0.0000 -10713.7714 1453.8223 0.0000 0.0000 1753.1784 -7506.7707 301.3113 -9259.9491 -7504.5113 300.2127 -42.6861 73.3808 30317.7568 2.8825 3.0285
TCL: Exiting due to exit command.
