Info: SIMULATION PARAMETERS:
Info: TIMESTEP               2
Info: NUMBER OF STEPS        0
Info: STEPS PER CYCLE        10
Info: PERIODIC CELL BASIS 1  36.592 0 0
Info: PERIODIC CELL BASIS 2  0 35.411 0
Info: PERIODIC CELL BASIS 3  0 0 34.68
Info: PERIODIC CELL CENTER   0 0 0
Info: WRAPPING WATERS AROUND PERIODIC BOUNDARIES ON OUTPUT.
Info: WRAPPING ALL CLUSTERS AROUND PERIODIC BOUNDARIES ON OUTPUT.
Info: FIRST LDB TIMESTEP     50
Info: LAST LDB TIMESTEP     -1
Info: HOM BACKGROUND SCALING 1
Info: PME BACKGROUND SCALING 1
Info: MIN ATOMS PER PATCH    40
Info: EMPTY PATCH LOAD       40 ATOMS
Info: INITIAL TEMPERATURE    300
Info: CENTER OF MASS MOVING INITIALLY? NO
Info: DIELECTRIC             1
Info: EXCLUDE                SCALED ONE-FOUR
Info: 1-4 ELECTROSTATICS SCALED BY 0.833333
Info: MODIFIED 1-4 VDW PARAMETERS WILL BE USED
Info: DCD FILENAME           mobley_8117218_equil.dcd
Info: DCD FREQUENCY          100000
Info: DCD FIRST STEP         100000
Info: DCD FILE WILL CONTAIN UNIT CELL DATA
Info: XST FILENAME           mobley_8117218_equil.xst
Info: XST FREQUENCY          100000
Info: NO VELOCITY DCD OUTPUT
Info: NO FORCE DCD OUTPUT
Info: OUTPUT FILENAME        mobley_8117218_equil
Info: BINARY OUTPUT FILES WILL BE USED
Info: RESTART FILENAME       mobley_8117218_equil.restart
Info: RESTART FREQUENCY      100000
Info: BINARY RESTART FILES WILL BE USED
Info: CUTOFF                 9
Info: PAIRLIST DISTANCE      11
Info: PAIRLIST SHRINK RATE   0.01
Info: PAIRLIST GROW RATE     0.01
Info: PAIRLIST TRIGGER       0.3
Info: PAIRLISTS PER CYCLE    2
Info: PAIRLISTS ENABLED
Info: MARGIN                 8
Info: HYDROGEN GROUP CUTOFF  2.5
Info: PATCH DIMENSION        21.5
Info: ENERGY OUTPUT STEPS    100000
Info: ENERGY EVALUATION STEPS    100000
Info: OUTPUT ENERGY PRECISION 4
Info: CROSSTERM ENERGY INCLUDED IN DIHEDRAL
Info: TIMING OUTPUT STEPS    1000000
Info: PRESSURE OUTPUT STEPS  100000
Info: FIXED ATOMS ACTIVE
Info: LANGEVIN DYNAMICS ACTIVE
Info: LANGEVIN TEMPERATURE   30
Info: LANGEVIN USING BBK INTEGRATOR
Info: LANGEVIN DAMPING COEFFICIENT IS 1 INVERSE PS
Info: LANGEVIN DYNAMICS APPLIED TO HYDROGENS
Info: LANGEVIN PISTON PRESSURE CONTROL ACTIVE
Info:        TARGET PRESSURE IS 1.01325 BAR
Info:     OSCILLATION PERIOD IS 50 FS
Info:             DECAY TIME IS 25 FS
Info:     PISTON TEMPERATURE IS 300 K
Info:       PRESSURE CONTROL IS GROUP-BASED
Info:    INITIAL STRAIN RATE IS 0 0 0
Info:       CELL FLUCTUATION IS ISOTROPIC
Info: PARTICLE MESH EWALD (PME) ACTIVE
Info: PME TOLERANCE               1e-06
Info: PME EWALD COEFFICIENT       0.348832
Info: PME INTERPOLATION ORDER     4
Info: PME GRID DIMENSIONS         40 36 36
Info: PME MAXIMUM GRID SPACING    1
Info: FULL ELECTROSTATIC EVALUATION FREQUENCY      2
Info: USING VERLET I (r-RESPA) MTS SCHEME.
Info: C1 SPLITTING OF LONG RANGE ELECTROSTATICS
Info: PLACING ATOMS IN PATCHES BY HYDROGEN GROUPS
Info: RIGID BONDS TO HYDROGEN : ALL
Info:         ERROR TOLERANCE : 1e-08
Info:          MAX ITERATIONS : 100
Info: RIGID WATER USING SETTLE ALGORITHM
Info: RANDOM NUMBER SEED     1743765459
Info: USE HYDROGEN BONDS?    NO
Info: Using AMBER format force field!
Info: AMBER PARM FILE        mobley_8117218.prmtop
Info: COORDINATE PDB         mobley_8117218.pdb
Info: Exclusions will be read from PARM file!
Info: SCNB (VDW SCALING)     2
Info: USING ARITHMETIC MEAN TO COMBINE L-J SIGMA PARAMETERS
Info: BINARY COORDINATES     mobley_8117218_min.coor
Info: SUMMARY OF PARAMETERS:
Info: 12 BONDS
Info: 19 ANGLES
Info:   19 HARMONIC
Info:   0 COSINE-BASED
Info: 16 DIHEDRAL
Info: 0 IMPROPER
Info: 0 CROSSTERM
Info: 0 VDW
Info: 36 VDW_PAIRS
Info: 0 NBTHOLE_PAIRS
Info: STRUCTURE SUMMARY:
Info: 2961 ATOMS
Info: 2965 BONDS
Info: 67 ANGLES
Info: 180 DIHEDRALS
Info: 0 IMPROPERS
Info: 0 CROSSTERMS
Info: 3123 EXCLUSIONS
Info: 27 FIXED ATOMS
Info: 2942 RIGID BONDS
Info: 8 RIGID BONDS BETWEEN FIXED ATOMS
Info: 5868 DEGREES OF FREEDOM
Info: 997 HYDROGEN GROUPS
Info: 3 ATOMS IN LARGEST HYDROGEN GROUP
Info: 997 MIGRATION GROUPS
Info: 3 ATOMS IN LARGEST MIGRATION GROUP
Info: 19 HYDROGEN GROUPS WITH ALL ATOMS FIXED
Info: TOTAL MASS = 18000.5 amu
Info: TOTAL CHARGE = 9.99887e-05 e
Info: MASS DENSITY = 0.665183 g/cm^3
Info: ATOM DENSITY = 0.0658923 atoms/A^3
Info: ADDED 0 IMPLICIT EXCLUSIONS
Info: NONBONDED TABLE R-SQUARED SPACING: 0.0625
Info: NONBONDED TABLE SIZE: 705 POINTS
Info: REMOVING COM VELOCITY 0.152621 0.242198 -0.208645
TCL: Running for 100000 steps
ETITLE: TS BOND ANGLE DIHED IMPRP ELECT VDW BOUNDARY MISC KINETIC TOTAL TEMP POTENTIAL TOTAL3 TEMPAVG PRESSURE GPRESSURE VOLUME PRESSAVG GPRESSAVG
ENERGY: 0 0.0000 0.0000 0.0000 0.0000 -13617.9259 2406.2848 0.0000 0.0000 1744.4533 -9467.1878 299.1987 -11211.6411 -9466.8346 299.1987 540.0734 570.6941 44936.9329 540.0734 570.6941
ENERGY: 100000 0.0000 0.0000 0.0000 0.0000 -14161.7986 2448.3427 0.0000 0.0000 177.5431 -11535.9128 30.4512 -11713.4559 -11535.3274 30.9053 -215.5204 -168.2369 29978.4551 4.5196 4.5167
TCL: Running 100000 steps at 60 kelvin.
TCL: Setting parameter langevinTemp to 60
TCL: Running for 100000 steps
ETITLE: TS BOND ANGLE DIHED IMPRP ELECT VDW BOUNDARY MISC KINETIC TOTAL TEMP POTENTIAL TOTAL3 TEMPAVG PRESSURE GPRESSURE VOLUME PRESSAVG GPRESSAVG
ENERGY: 100000 0.0000 0.0000 0.0000 0.0000 -14161.7986 2448.3427 0.0000 0.0000 177.4590 -11535.9969 30.4368 -11713.4559 -11535.6517 30.4368 -223.2093 -168.1392 29978.4551 -223.2093 -168.1392
ENERGY: 200000 0.0000 0.0000 0.0000 0.0000 -14062.6888 2425.0206 0.0000 0.0000 346.6188 -11291.0494 59.4501 -11637.6682 -11289.7794 60.0439 -16.7976 54.4141 29637.1752 4.2196 4.2362
TCL: Running 100000 steps at 90 kelvin.
TCL: Setting parameter langevinTemp to 90
TCL: Running for 100000 steps
ETITLE: TS BOND ANGLE DIHED IMPRP ELECT VDW BOUNDARY MISC KINETIC TOTAL TEMP POTENTIAL TOTAL3 TEMPAVG PRESSURE GPRESSURE VOLUME PRESSAVG GPRESSAVG
ENERGY: 200000 0.0000 0.0000 0.0000 0.0000 -14062.6888 2425.0206 0.0000 0.0000 346.4430 -11291.2253 59.4199 -11637.6682 -11290.4301 59.4199 7.9642 54.7510 29637.1752 7.9642 54.7510
ENERGY: 300000 0.0000 0.0000 0.0000 0.0000 -13847.7159 2286.1855 0.0000 0.0000 516.2575 -11045.2730 88.5455 -11561.5305 -11044.3814 89.9691 -871.3879 -820.8353 30071.0275 4.9859 4.9005
TCL: Running 100000 steps at 120 kelvin.
TCL: Setting parameter langevinTemp to 120
TCL: Running for 100000 steps
ETITLE: TS BOND ANGLE DIHED IMPRP ELECT VDW BOUNDARY MISC KINETIC TOTAL TEMP POTENTIAL TOTAL3 TEMPAVG PRESSURE GPRESSURE VOLUME PRESSAVG GPRESSAVG
ENERGY: 300000 0.0000 0.0000 0.0000 0.0000 -13847.7159 2286.1855 0.0000 0.0000 516.0003 -11045.5302 88.5014 -11561.5305 -11044.3018 88.5014 -866.9669 -821.0625 30071.0275 -866.9669 -821.0625
ENERGY: 400000 0.0000 0.0000 0.0000 0.0000 -13750.8595 2322.2069 0.0000 0.0000 695.8864 -10732.7663 119.3544 -11428.6526 -10730.7671 120.0429 1.2804 37.4331 29745.1283 4.0864 3.8594
TCL: Running 100000 steps at 150 kelvin.
TCL: Setting parameter langevinTemp to 150
TCL: Running for 100000 steps
ETITLE: TS BOND ANGLE DIHED IMPRP ELECT VDW BOUNDARY MISC KINETIC TOTAL TEMP POTENTIAL TOTAL3 TEMPAVG PRESSURE GPRESSURE VOLUME PRESSAVG GPRESSAVG
ENERGY: 400000 0.0000 0.0000 0.0000 0.0000 -13750.8595 2322.2069 0.0000 0.0000 695.5333 -10733.1193 119.2939 -11428.6526 -10731.6948 119.2939 8.5799 37.1001 29745.1283 8.5799 37.1001
ENERGY: 500000 0.0000 0.0000 0.0000 0.0000 -13512.6532 2231.3461 0.0000 0.0000 852.3188 -10428.9882 146.1848 -11281.3070 -10426.7425 150.2338 74.2840 84.2695 29029.1289 3.9374 3.9868
TCL: Running 100000 steps at 180 kelvin.
TCL: Setting parameter langevinTemp to 180
TCL: Running for 100000 steps
ETITLE: TS BOND ANGLE DIHED IMPRP ELECT VDW BOUNDARY MISC KINETIC TOTAL TEMP POTENTIAL TOTAL3 TEMPAVG PRESSURE GPRESSURE VOLUME PRESSAVG GPRESSAVG
ENERGY: 500000 0.0000 0.0000 0.0000 0.0000 -13512.6532 2231.3461 0.0000 0.0000 851.8724 -10429.4346 146.1083 -11281.3070 -10427.6749 146.1083 33.1867 85.2046 29029.1289 33.1867 85.2046
ENERGY: 600000 0.0000 0.0000 0.0000 0.0000 -13142.4572 2142.8757 0.0000 0.0000 1029.0247 -9970.5569 176.4924 -10999.5816 -9968.4392 179.9960 430.4223 500.4258 28912.8308 2.3439 2.3403
TCL: Running 100000 steps at 210 kelvin.
TCL: Setting parameter langevinTemp to 210
TCL: Running for 100000 steps
ETITLE: TS BOND ANGLE DIHED IMPRP ELECT VDW BOUNDARY MISC KINETIC TOTAL TEMP POTENTIAL TOTAL3 TEMPAVG PRESSURE GPRESSURE VOLUME PRESSAVG GPRESSAVG
ENERGY: 600000 0.0000 0.0000 0.0000 0.0000 -13142.4572 2142.8757 0.0000 0.0000 1028.4815 -9971.1001 176.3993 -10999.5816 -9969.2512 176.3993 456.4863 500.9161 28912.8308 456.4863 500.9161
ENERGY: 700000 0.0000 0.0000 0.0000 0.0000 -12294.0793 1790.2517 0.0000 0.0000 1246.6640 -9257.1636 213.8207 -10503.8277 -9254.9432 209.5200 -637.6509 -604.7764 29044.3531 4.6040 4.4323
TCL: Running 100000 steps at 240 kelvin.
TCL: Setting parameter langevinTemp to 240
TCL: Running for 100000 steps
ETITLE: TS BOND ANGLE DIHED IMPRP ELECT VDW BOUNDARY MISC KINETIC TOTAL TEMP POTENTIAL TOTAL3 TEMPAVG PRESSURE GPRESSURE VOLUME PRESSAVG GPRESSAVG
ENERGY: 700000 0.0000 0.0000 0.0000 0.0000 -12294.0793 1790.2517 0.0000 0.0000 1246.0410 -9257.7867 213.7138 -10503.8277 -9255.7644 213.7138 -676.2409 -604.3657 29044.3531 -676.2409 -604.3657
ENERGY: 800000 0.0000 0.0000 0.0000 0.0000 -11835.5595 1717.6001 0.0000 0.0000 1396.5611 -8721.3983 239.5302 -10117.9594 -8718.5118 240.3119 148.0132 204.0927 29142.5985 3.4857 3.4393
TCL: Running 100000 steps at 270 kelvin.
TCL: Setting parameter langevinTemp to 270
TCL: Running for 100000 steps
ETITLE: TS BOND ANGLE DIHED IMPRP ELECT VDW BOUNDARY MISC KINETIC TOTAL TEMP POTENTIAL TOTAL3 TEMPAVG PRESSURE GPRESSURE VOLUME PRESSAVG GPRESSAVG
ENERGY: 800000 0.0000 0.0000 0.0000 0.0000 -11835.5595 1717.6001 0.0000 0.0000 1395.8502 -8722.1091 239.4082 -10117.9594 -8719.3815 239.4082 122.2149 203.9104 29142.5985 122.2149 203.9104
ENERGY: 900000 0.0000 0.0000 0.0000 0.0000 -11056.3411 1484.7938 0.0000 0.0000 1608.3139 -7963.2334 275.8488 -9571.5473 -7959.8486 270.2059 -221.0915 -111.7212 29925.5590 2.6892 2.8216
TCL: Running 1000000 steps at 300 kelvin.
TCL: Setting parameter langevinTemp to 300
TCL: Running for 1000000 steps
ETITLE: TS BOND ANGLE DIHED IMPRP ELECT VDW BOUNDARY MISC KINETIC TOTAL TEMP POTENTIAL TOTAL3 TEMPAVG PRESSURE GPRESSURE VOLUME PRESSAVG GPRESSAVG
ENERGY: 900000 0.0000 0.0000 0.0000 0.0000 -11056.3411 1484.7938 0.0000 0.0000 1607.5394 -7964.0079 275.7160 -9571.5473 -7961.1989 275.7160 -200.8734 -110.6023 29925.5590 -200.8734 -110.6023
ENERGY: 1100000 0.0000 0.0000 0.0000 0.0000 -10581.8147 1426.1367 0.0000 0.0000 1780.7376 -7374.9404 305.4219 -9155.6780 -7372.3864 300.6320 386.4947 495.8035 30662.2666 1.2791 1.2375
ENERGY: 1300000 0.0000 0.0000 0.0000 0.0000 -10606.7733 1371.9798 0.0000 0.0000 1785.4064 -7449.3871 306.2227 -9234.7935 -7447.5374 299.9548 -408.8056 -337.1068 31253.3092 1.6673 1.6352
ENERGY: 1500000 0.0000 0.0000 0.0000 0.0000 -10746.0231 1425.1055 0.0000 0.0000 1712.9371 -7607.9805 293.7932 -9320.9176 -7606.6168 299.7340 -126.1740 14.4627 30313.0386 3.5514 3.6290
ENERGY: 1700000 0.0000 0.0000 0.0000 0.0000 -10621.3784 1386.8349 0.0000 0.0000 1683.7397 -7550.8038 288.7854 -9234.5435 -7548.8266 300.4980 -124.2998 22.3597 30284.2105 3.7519 3.7885
ENERGY: 1900000 0.0000 0.0000 0.0000 0.0000 -10688.4863 1456.0939 0.0000 0.0000 1773.2894 -7459.1030 304.1445 -9232.3924 -7455.1066 299.6382 261.0812 351.6672 30805.1434 2.5516 2.5848
TCL: Exiting due to exit command.
