Info: SIMULATION PARAMETERS:
Info: TIMESTEP               2
Info: NUMBER OF STEPS        0
Info: STEPS PER CYCLE        10
Info: PERIODIC CELL BASIS 1  36.005 0 0
Info: PERIODIC CELL BASIS 2  0 35.779 0
Info: PERIODIC CELL BASIS 3  0 0 34.471
Info: PERIODIC CELL CENTER   0 0 0
Info: WRAPPING WATERS AROUND PERIODIC BOUNDARIES ON OUTPUT.
Info: WRAPPING ALL CLUSTERS AROUND PERIODIC BOUNDARIES ON OUTPUT.
Info: FIRST LDB TIMESTEP     50
Info: LAST LDB TIMESTEP     -1
Info: HOM BACKGROUND SCALING 1
Info: PME BACKGROUND SCALING 1
Info: MIN ATOMS PER PATCH    40
Info: EMPTY PATCH LOAD       40 ATOMS
Info: INITIAL TEMPERATURE    300
Info: CENTER OF MASS MOVING INITIALLY? NO
Info: DIELECTRIC             1
Info: EXCLUDE                SCALED ONE-FOUR
Info: 1-4 ELECTROSTATICS SCALED BY 0.833333
Info: MODIFIED 1-4 VDW PARAMETERS WILL BE USED
Info: DCD FILENAME           mobley_5157661_equil.dcd
Info: DCD FREQUENCY          100000
Info: DCD FIRST STEP         100000
Info: DCD FILE WILL CONTAIN UNIT CELL DATA
Info: XST FILENAME           mobley_5157661_equil.xst
Info: XST FREQUENCY          100000
Info: NO VELOCITY DCD OUTPUT
Info: NO FORCE DCD OUTPUT
Info: OUTPUT FILENAME        mobley_5157661_equil
Info: BINARY OUTPUT FILES WILL BE USED
Info: RESTART FILENAME       mobley_5157661_equil.restart
Info: RESTART FREQUENCY      100000
Info: BINARY RESTART FILES WILL BE USED
Info: CUTOFF                 9
Info: PAIRLIST DISTANCE      11
Info: PAIRLIST SHRINK RATE   0.01
Info: PAIRLIST GROW RATE     0.01
Info: PAIRLIST TRIGGER       0.3
Info: PAIRLISTS PER CYCLE    2
Info: PAIRLISTS ENABLED
Info: MARGIN                 8
Info: HYDROGEN GROUP CUTOFF  2.5
Info: PATCH DIMENSION        21.5
Info: ENERGY OUTPUT STEPS    100000
Info: ENERGY EVALUATION STEPS    100000
Info: OUTPUT ENERGY PRECISION 4
Info: CROSSTERM ENERGY INCLUDED IN DIHEDRAL
Info: TIMING OUTPUT STEPS    1000000
Info: PRESSURE OUTPUT STEPS  100000
Info: FIXED ATOMS ACTIVE
Info: LANGEVIN DYNAMICS ACTIVE
Info: LANGEVIN TEMPERATURE   30
Info: LANGEVIN USING BBK INTEGRATOR
Info: LANGEVIN DAMPING COEFFICIENT IS 1 INVERSE PS
Info: LANGEVIN DYNAMICS APPLIED TO HYDROGENS
Info: LANGEVIN PISTON PRESSURE CONTROL ACTIVE
Info:        TARGET PRESSURE IS 1.01325 BAR
Info:     OSCILLATION PERIOD IS 50 FS
Info:             DECAY TIME IS 25 FS
Info:     PISTON TEMPERATURE IS 300 K
Info:       PRESSURE CONTROL IS GROUP-BASED
Info:    INITIAL STRAIN RATE IS 0 0 0
Info:       CELL FLUCTUATION IS ISOTROPIC
Info: PARTICLE MESH EWALD (PME) ACTIVE
Info: PME TOLERANCE               1e-06
Info: PME EWALD COEFFICIENT       0.348832
Info: PME INTERPOLATION ORDER     4
Info: PME GRID DIMENSIONS         40 36 36
Info: PME MAXIMUM GRID SPACING    1
Info: FULL ELECTROSTATIC EVALUATION FREQUENCY      2
Info: USING VERLET I (r-RESPA) MTS SCHEME.
Info: C1 SPLITTING OF LONG RANGE ELECTROSTATICS
Info: PLACING ATOMS IN PATCHES BY HYDROGEN GROUPS
Info: RIGID BONDS TO HYDROGEN : ALL
Info:         ERROR TOLERANCE : 1e-08
Info:          MAX ITERATIONS : 100
Info: RIGID WATER USING SETTLE ALGORITHM
Info: RANDOM NUMBER SEED     1743731106
Info: USE HYDROGEN BONDS?    NO
Info: Using AMBER format force field!
Info: AMBER PARM FILE        mobley_5157661.prmtop
Info: COORDINATE PDB         mobley_5157661.pdb
Info: Exclusions will be read from PARM file!
Info: SCNB (VDW SCALING)     2
Info: USING ARITHMETIC MEAN TO COMBINE L-J SIGMA PARAMETERS
Info: BINARY COORDINATES     mobley_5157661_min.coor
Info: SUMMARY OF PARAMETERS:
Info: 4 BONDS
Info: 3 ANGLES
Info:   3 HARMONIC
Info:   0 COSINE-BASED
Info: 2 DIHEDRAL
Info: 0 IMPROPER
Info: 0 CROSSTERM
Info: 0 VDW
Info: 10 VDW_PAIRS
Info: 0 NBTHOLE_PAIRS
Info: STRUCTURE SUMMARY:
Info: 2918 ATOMS
Info: 2917 BONDS
Info: 24 ANGLES
Info: 27 DIHEDRALS
Info: 0 IMPROPERS
Info: 0 CROSSTERMS
Info: 2968 EXCLUSIONS
Info: 14 FIXED ATOMS
Info: 2914 RIGID BONDS
Info: 10 RIGID BONDS BETWEEN FIXED ATOMS
Info: 5808 DEGREES OF FREEDOM
Info: 972 HYDROGEN GROUPS
Info: 4 ATOMS IN LARGEST HYDROGEN GROUP
Info: 972 MIGRATION GROUPS
Info: 4 ATOMS IN LARGEST MIGRATION GROUP
Info: 4 HYDROGEN GROUPS WITH ALL ATOMS FIXED
Info: TOTAL MASS = 17497.6 amu
Info: TOTAL CHARGE = 0.000200011 e
Info: MASS DENSITY = 0.654324 g/cm^3
Info: ATOM DENSITY = 0.0657114 atoms/A^3
Info: ADDED 0 IMPLICIT EXCLUSIONS
Info: NONBONDED TABLE R-SQUARED SPACING: 0.0625
Info: NONBONDED TABLE SIZE: 705 POINTS
Info: REMOVING COM VELOCITY 0.107293 0.0308285 -0.0665997
TCL: Running for 100000 steps
ETITLE: TS BOND ANGLE DIHED IMPRP ELECT VDW BOUNDARY MISC KINETIC TOTAL TEMP POTENTIAL TOTAL3 TEMPAVG PRESSURE GPRESSURE VOLUME PRESSAVG GPRESSAVG
ENERGY: 0 0.0000 0.0000 0.0000 0.0000 -13457.3020 2411.2060 0.0000 0.0000 1712.9961 -9333.0999 296.8384 -11046.0959 -9332.7830 296.8384 740.7761 765.8578 44406.3314 740.7761 765.8578
ENERGY: 100000 0.0000 0.0000 0.0000 0.0000 -14071.3373 2474.6872 0.0000 0.0000 168.0239 -11428.6262 29.1162 -11596.6501 -11428.1856 30.9061 186.8446 218.3248 29006.9160 4.4714 4.5035
TCL: Running 100000 steps at 60 kelvin.
TCL: Setting parameter langevinTemp to 60
TCL: Running for 100000 steps
ETITLE: TS BOND ANGLE DIHED IMPRP ELECT VDW BOUNDARY MISC KINETIC TOTAL TEMP POTENTIAL TOTAL3 TEMPAVG PRESSURE GPRESSURE VOLUME PRESSAVG GPRESSAVG
ENERGY: 100000 0.0000 0.0000 0.0000 0.0000 -14071.3373 2474.6872 0.0000 0.0000 167.9410 -11428.7091 29.1019 -11596.6501 -11428.3985 29.1019 181.5725 218.4944 29006.9160 181.5725 218.4944
ENERGY: 200000 0.0000 0.0000 0.0000 0.0000 -13864.4564 2341.2890 0.0000 0.0000 344.7828 -11178.3846 59.7461 -11523.1674 -11177.1510 59.9517 -512.5656 -456.8052 28723.6931 3.7047 3.6807
TCL: Running 100000 steps at 90 kelvin.
TCL: Setting parameter langevinTemp to 90
TCL: Running for 100000 steps
ETITLE: TS BOND ANGLE DIHED IMPRP ELECT VDW BOUNDARY MISC KINETIC TOTAL TEMP POTENTIAL TOTAL3 TEMPAVG PRESSURE GPRESSURE VOLUME PRESSAVG GPRESSAVG
ENERGY: 200000 0.0000 0.0000 0.0000 0.0000 -13864.4564 2341.2890 0.0000 0.0000 344.6127 -11178.5547 59.7166 -11523.1674 -11177.7757 59.7166 -504.4086 -457.2200 28723.6931 -504.4086 -457.2200
ENERGY: 300000 0.0000 0.0000 0.0000 0.0000 -13825.7907 2395.7173 0.0000 0.0000 512.6066 -10917.4668 88.8276 -11430.0734 -10916.5694 90.0439 410.7014 405.8613 28519.0034 4.3609 4.3270
TCL: Running 100000 steps at 120 kelvin.
TCL: Setting parameter langevinTemp to 120
TCL: Running for 100000 steps
ETITLE: TS BOND ANGLE DIHED IMPRP ELECT VDW BOUNDARY MISC KINETIC TOTAL TEMP POTENTIAL TOTAL3 TEMPAVG PRESSURE GPRESSURE VOLUME PRESSAVG GPRESSAVG
ENERGY: 300000 0.0000 0.0000 0.0000 0.0000 -13825.7907 2395.7173 0.0000 0.0000 512.3533 -10917.7201 88.7837 -11430.0734 -10916.7307 88.7837 363.5677 405.3171 28519.0034 363.5677 405.3171
ENERGY: 400000 0.0000 0.0000 0.0000 0.0000 -13560.9263 2265.3632 0.0000 0.0000 695.4279 -10600.1351 120.5080 -11295.5630 -10598.7072 120.1338 -297.4118 -252.2796 28878.1141 3.2801 3.3534
TCL: Running 100000 steps at 150 kelvin.
TCL: Setting parameter langevinTemp to 150
TCL: Running for 100000 steps
ETITLE: TS BOND ANGLE DIHED IMPRP ELECT VDW BOUNDARY MISC KINETIC TOTAL TEMP POTENTIAL TOTAL3 TEMPAVG PRESSURE GPRESSURE VOLUME PRESSAVG GPRESSAVG
ENERGY: 400000 0.0000 0.0000 0.0000 0.0000 -13560.9263 2265.3632 0.0000 0.0000 695.0812 -10600.4818 120.4479 -11295.5630 -10599.3755 120.4479 -300.6606 -251.8995 28878.1141 -300.6606 -251.8995
ENERGY: 500000 0.0000 0.0000 0.0000 0.0000 -13385.3341 2268.7827 0.0000 0.0000 872.9483 -10243.6031 151.2698 -11116.5514 -10242.3396 150.0023 497.7423 530.4752 28475.7338 3.5776 3.6897
TCL: Running 100000 steps at 180 kelvin.
TCL: Setting parameter langevinTemp to 180
TCL: Running for 100000 steps
ETITLE: TS BOND ANGLE DIHED IMPRP ELECT VDW BOUNDARY MISC KINETIC TOTAL TEMP POTENTIAL TOTAL3 TEMPAVG PRESSURE GPRESSURE VOLUME PRESSAVG GPRESSAVG
ENERGY: 500000 0.0000 0.0000 0.0000 0.0000 -13385.3341 2268.7827 0.0000 0.0000 872.5139 -10244.0375 151.1946 -11116.5514 -10242.5005 151.1946 476.2100 529.6052 28475.7338 476.2100 529.6052
ENERGY: 600000 0.0000 0.0000 0.0000 0.0000 -12951.7795 2073.9388 0.0000 0.0000 1074.4252 -9803.4155 186.1830 -10877.8407 -9801.0381 180.1000 -236.2319 -219.0667 28752.2854 3.4185 3.4854
TCL: Running 100000 steps at 210 kelvin.
TCL: Setting parameter langevinTemp to 210
TCL: Running for 100000 steps
ETITLE: TS BOND ANGLE DIHED IMPRP ELECT VDW BOUNDARY MISC KINETIC TOTAL TEMP POTENTIAL TOTAL3 TEMPAVG PRESSURE GPRESSURE VOLUME PRESSAVG GPRESSAVG
ENERGY: 600000 0.0000 0.0000 0.0000 0.0000 -12951.7795 2073.9388 0.0000 0.0000 1073.8912 -9803.9495 186.0904 -10877.8407 -9802.1858 186.0904 -285.1656 -218.6841 28752.2854 -285.1656 -218.6841
ENERGY: 700000 0.0000 0.0000 0.0000 0.0000 -12336.6100 1968.6992 0.0000 0.0000 1171.1723 -9196.7385 202.9479 -10367.9108 -9195.1339 209.7473 668.9918 698.3805 28680.7981 1.9100 1.9217
TCL: Running 100000 steps at 240 kelvin.
TCL: Setting parameter langevinTemp to 240
TCL: Running for 100000 steps
ETITLE: TS BOND ANGLE DIHED IMPRP ELECT VDW BOUNDARY MISC KINETIC TOTAL TEMP POTENTIAL TOTAL3 TEMPAVG PRESSURE GPRESSURE VOLUME PRESSAVG GPRESSAVG
ENERGY: 700000 0.0000 0.0000 0.0000 0.0000 -12336.6100 1968.6992 0.0000 0.0000 1170.5864 -9197.3244 202.8464 -10367.9108 -9194.9854 202.8464 625.3138 696.9618 28680.7981 625.3138 696.9618
ENERGY: 800000 0.0000 0.0000 0.0000 0.0000 -11796.5348 1757.2800 0.0000 0.0000 1356.1235 -8683.1313 234.9974 -10039.2548 -8679.1024 239.6220 -158.6917 -18.9967 29100.1335 2.1174 2.1273
TCL: Running 100000 steps at 270 kelvin.
TCL: Setting parameter langevinTemp to 270
TCL: Running for 100000 steps
ETITLE: TS BOND ANGLE DIHED IMPRP ELECT VDW BOUNDARY MISC KINETIC TOTAL TEMP POTENTIAL TOTAL3 TEMPAVG PRESSURE GPRESSURE VOLUME PRESSAVG GPRESSAVG
ENERGY: 800000 0.0000 0.0000 0.0000 0.0000 -11796.5348 1757.2800 0.0000 0.0000 1355.4175 -8683.8374 234.8750 -10039.2548 -8681.2006 234.8750 -98.6959 -19.7195 29100.1335 -98.6959 -19.7195
ENERGY: 900000 0.0000 0.0000 0.0000 0.0000 -11040.3050 1517.2639 0.0000 0.0000 1542.1540 -7980.8870 267.2339 -9523.0410 -7979.1830 269.5133 -241.9676 -163.1338 29298.4056 3.8580 3.8276
TCL: Running 1000000 steps at 300 kelvin.
TCL: Setting parameter langevinTemp to 300
TCL: Running for 1000000 steps
ETITLE: TS BOND ANGLE DIHED IMPRP ELECT VDW BOUNDARY MISC KINETIC TOTAL TEMP POTENTIAL TOTAL3 TEMPAVG PRESSURE GPRESSURE VOLUME PRESSAVG GPRESSAVG
ENERGY: 900000 0.0000 0.0000 0.0000 0.0000 -11040.3050 1517.2639 0.0000 0.0000 1541.3696 -7981.6714 267.0980 -9523.0410 -7978.9858 267.0980 -261.5735 -162.0571 29298.4056 -261.5735 -162.0571
ENERGY: 1100000 0.0000 0.0000 0.0000 0.0000 -10566.5290 1433.8228 0.0000 0.0000 1695.0154 -7437.6908 293.7226 -9132.7062 -7436.3273 299.9608 89.0571 119.2578 30146.2838 2.3093 2.2407
ENERGY: 1300000 0.0000 0.0000 0.0000 0.0000 -10500.8253 1296.1993 0.0000 0.0000 1749.2995 -7455.3265 303.1293 -9204.6260 -7449.7682 300.6788 -1234.5771 -1129.4824 30221.3141 4.2746 4.0805
ENERGY: 1500000 0.0000 0.0000 0.0000 0.0000 -10692.3538 1497.9758 0.0000 0.0000 1685.4775 -7508.9005 292.0699 -9194.3780 -7509.0195 299.7963 342.2354 402.0416 30185.2406 2.9592 2.7255
ENERGY: 1700000 0.0000 0.0000 0.0000 0.0000 -10611.7792 1449.0661 0.0000 0.0000 1744.5494 -7418.1637 302.3062 -9162.7130 -7415.1849 300.1278 25.9465 88.6376 30409.0329 2.3565 2.3602
ENERGY: 1900000 0.0000 0.0000 0.0000 0.0000 -10477.6208 1342.2704 0.0000 0.0000 1716.9227 -7418.4277 297.5189 -9135.3504 -7414.9316 300.0262 -696.3995 -594.1005 30163.7923 1.8086 1.7265
TCL: Exiting due to exit command.
