Info: SIMULATION PARAMETERS:
Info: TIMESTEP               2
Info: NUMBER OF STEPS        0
Info: STEPS PER CYCLE        10
Info: PERIODIC CELL BASIS 1  37.133 0 0
Info: PERIODIC CELL BASIS 2  0 35.779 0
Info: PERIODIC CELL BASIS 3  0 0 33.27
Info: PERIODIC CELL CENTER   0 0 0
Info: WRAPPING WATERS AROUND PERIODIC BOUNDARIES ON OUTPUT.
Info: WRAPPING ALL CLUSTERS AROUND PERIODIC BOUNDARIES ON OUTPUT.
Info: FIRST LDB TIMESTEP     50
Info: LAST LDB TIMESTEP     -1
Info: HOM BACKGROUND SCALING 1
Info: PME BACKGROUND SCALING 1
Info: MIN ATOMS PER PATCH    40
Info: EMPTY PATCH LOAD       40 ATOMS
Info: INITIAL TEMPERATURE    300
Info: CENTER OF MASS MOVING INITIALLY? NO
Info: DIELECTRIC             1
Info: EXCLUDE                SCALED ONE-FOUR
Info: 1-4 ELECTROSTATICS SCALED BY 0.833333
Info: MODIFIED 1-4 VDW PARAMETERS WILL BE USED
Info: DCD FILENAME           mobley_900088_equil.dcd
Info: DCD FREQUENCY          100000
Info: DCD FIRST STEP         100000
Info: DCD FILE WILL CONTAIN UNIT CELL DATA
Info: XST FILENAME           mobley_900088_equil.xst
Info: XST FREQUENCY          100000
Info: NO VELOCITY DCD OUTPUT
Info: NO FORCE DCD OUTPUT
Info: OUTPUT FILENAME        mobley_900088_equil
Info: BINARY OUTPUT FILES WILL BE USED
Info: RESTART FILENAME       mobley_900088_equil.restart
Info: RESTART FREQUENCY      100000
Info: BINARY RESTART FILES WILL BE USED
Info: CUTOFF                 9
Info: PAIRLIST DISTANCE      11
Info: PAIRLIST SHRINK RATE   0.01
Info: PAIRLIST GROW RATE     0.01
Info: PAIRLIST TRIGGER       0.3
Info: PAIRLISTS PER CYCLE    2
Info: PAIRLISTS ENABLED
Info: MARGIN                 8
Info: HYDROGEN GROUP CUTOFF  2.5
Info: PATCH DIMENSION        21.5
Info: ENERGY OUTPUT STEPS    100000
Info: ENERGY EVALUATION STEPS    100000
Info: OUTPUT ENERGY PRECISION 4
Info: CROSSTERM ENERGY INCLUDED IN DIHEDRAL
Info: TIMING OUTPUT STEPS    1000000
Info: PRESSURE OUTPUT STEPS  100000
Info: FIXED ATOMS ACTIVE
Info: LANGEVIN DYNAMICS ACTIVE
Info: LANGEVIN TEMPERATURE   30
Info: LANGEVIN USING BBK INTEGRATOR
Info: LANGEVIN DAMPING COEFFICIENT IS 1 INVERSE PS
Info: LANGEVIN DYNAMICS APPLIED TO HYDROGENS
Info: LANGEVIN PISTON PRESSURE CONTROL ACTIVE
Info:        TARGET PRESSURE IS 1.01325 BAR
Info:     OSCILLATION PERIOD IS 50 FS
Info:             DECAY TIME IS 25 FS
Info:     PISTON TEMPERATURE IS 300 K
Info:       PRESSURE CONTROL IS GROUP-BASED
Info:    INITIAL STRAIN RATE IS 0 0 0
Info:       CELL FLUCTUATION IS ISOTROPIC
Info: PARTICLE MESH EWALD (PME) ACTIVE
Info: PME TOLERANCE               1e-06
Info: PME EWALD COEFFICIENT       0.348832
Info: PME INTERPOLATION ORDER     4
Info: PME GRID DIMENSIONS         40 36 36
Info: PME MAXIMUM GRID SPACING    1
Info: FULL ELECTROSTATIC EVALUATION FREQUENCY      2
Info: USING VERLET I (r-RESPA) MTS SCHEME.
Info: C1 SPLITTING OF LONG RANGE ELECTROSTATICS
Info: PLACING ATOMS IN PATCHES BY HYDROGEN GROUPS
Info: RIGID BONDS TO HYDROGEN : ALL
Info:         ERROR TOLERANCE : 1e-08
Info:          MAX ITERATIONS : 100
Info: RIGID WATER USING SETTLE ALGORITHM
Info: RANDOM NUMBER SEED     1744085519
Info: USE HYDROGEN BONDS?    NO
Info: Using AMBER format force field!
Info: AMBER PARM FILE        mobley_900088.prmtop
Info: COORDINATE PDB         mobley_900088.pdb
Info: Exclusions will be read from PARM file!
Info: SCNB (VDW SCALING)     2
Info: USING ARITHMETIC MEAN TO COMBINE L-J SIGMA PARAMETERS
Info: BINARY COORDINATES     mobley_900088_min.coor
Info: SUMMARY OF PARAMETERS:
Info: 7 BONDS
Info: 7 ANGLES
Info: 5 DIHEDRAL
Info: 0 IMPROPER
Info: 0 CROSSTERM
Info: 0 VDW
Info: 21 VDW_PAIRS
Info: 0 NBTHOLE_PAIRS
Info: STRUCTURE SUMMARY:
Info: 2938 ATOMS
Info: 2937 BONDS
Info: 24 ANGLES
Info: 40 DIHEDRALS
Info: 0 IMPROPERS
Info: 0 CROSSTERMS
Info: 2985 EXCLUSIONS
Info: 16 FIXED ATOMS
Info: 2932 RIGID BONDS
Info: 10 RIGID BONDS BETWEEN FIXED ATOMS
Info: 5844 DEGREES OF FREEDOM
Info: 980 HYDROGEN GROUPS
Info: 4 ATOMS IN LARGEST HYDROGEN GROUP
Info: 980 MIGRATION GROUPS
Info: 4 ATOMS IN LARGEST MIGRATION GROUP
Info: 6 HYDROGEN GROUPS WITH ALL ATOMS FIXED
Info: TOTAL MASS = 17629.7 amu
Info: TOTAL CHARGE = 0.000199988 e
Info: MASS DENSITY = 0.662314 g/cm^3
Info: ATOM DENSITY = 0.0664677 atoms/A^3
Info: ADDED 0 IMPLICIT EXCLUSIONS
Info: NONBONDED TABLE R-SQUARED SPACING: 0.0625
Info: NONBONDED TABLE SIZE: 705 POINTS
Info: REMOVING COM VELOCITY -0.0493692 0.0537995 0.0023543
TCL: Running for 100000 steps
ETITLE: TS BOND ANGLE DIHED IMPRP ELECT VDW BOUNDARY MISC KINETIC TOTAL TEMP POTENTIAL TOTAL3 TEMPAVG PRESSURE GPRESSURE VOLUME PRESSAVG GPRESSAVG
ENERGY: 0 0.0000 0.0000 0.0000 0.0000 -13623.6249 2404.2178 0.0000 0.0000 1698.5863 -9520.8209 292.5282 -11219.4071 -9520.5111 292.5282 421.8043 459.9750 44201.9101 421.8043 459.9750
ENERGY: 100000 0.0000 0.0000 0.0000 0.0000 -14153.7321 2487.0444 0.0000 0.0000 176.9166 -11489.7711 30.4683 -11666.6877 -11488.9499 30.8841 137.1420 171.1852 29143.9749 3.2175 3.2135
TCL: Running 100000 steps at 60 kelvin.
TCL: Setting parameter langevinTemp to 60
TCL: Running for 100000 steps
ETITLE: TS BOND ANGLE DIHED IMPRP ELECT VDW BOUNDARY MISC KINETIC TOTAL TEMP POTENTIAL TOTAL3 TEMPAVG PRESSURE GPRESSURE VOLUME PRESSAVG GPRESSAVG
ENERGY: 100000 0.0000 0.0000 0.0000 0.0000 -14153.7321 2487.0444 0.0000 0.0000 176.8280 -11489.8596 30.4531 -11666.6877 -11489.5356 30.4531 123.2073 171.5292 29143.9749 123.2073 171.5292
ENERGY: 200000 0.0000 0.0000 0.0000 0.0000 -13934.5142 2340.4427 0.0000 0.0000 348.9494 -11245.1221 60.0956 -11594.0715 -11244.6786 59.9671 -629.0393 -600.3432 29006.2812 4.5274 4.4597
TCL: Running 100000 steps at 90 kelvin.
TCL: Setting parameter langevinTemp to 90
TCL: Running for 100000 steps
ETITLE: TS BOND ANGLE DIHED IMPRP ELECT VDW BOUNDARY MISC KINETIC TOTAL TEMP POTENTIAL TOTAL3 TEMPAVG PRESSURE GPRESSURE VOLUME PRESSAVG GPRESSAVG
ENERGY: 200000 0.0000 0.0000 0.0000 0.0000 -13934.5142 2340.4427 0.0000 0.0000 348.7710 -11245.3005 60.0649 -11594.0715 -11244.5002 60.0649 -644.5236 -600.8246 29006.2812 -644.5236 -600.8246
ENERGY: 300000 0.0000 0.0000 0.0000 0.0000 -14014.2120 2491.6735 0.0000 0.0000 516.8721 -11005.6665 89.0150 -11522.5385 -11004.1223 89.8631 907.7388 996.5683 28611.5201 2.8841 2.8856
TCL: Running 100000 steps at 120 kelvin.
TCL: Setting parameter langevinTemp to 120
TCL: Running for 100000 steps
ETITLE: TS BOND ANGLE DIHED IMPRP ELECT VDW BOUNDARY MISC KINETIC TOTAL TEMP POTENTIAL TOTAL3 TEMPAVG PRESSURE GPRESSURE VOLUME PRESSAVG GPRESSAVG
ENERGY: 300000 0.0000 0.0000 0.0000 0.0000 -14014.2120 2491.6735 0.0000 0.0000 516.6221 -11005.9164 88.9720 -11522.5385 -11004.9764 88.9720 937.6105 997.0931 28611.5201 937.6105 997.0931
ENERGY: 400000 0.0000 0.0000 0.0000 0.0000 -13613.9236 2237.1083 0.0000 0.0000 703.7163 -10673.0990 121.1931 -11376.8153 -10671.7009 120.2244 -663.7161 -556.7958 28857.0260 3.6365 3.5564
TCL: Running 100000 steps at 150 kelvin.
TCL: Setting parameter langevinTemp to 150
TCL: Running for 100000 steps
ETITLE: TS BOND ANGLE DIHED IMPRP ELECT VDW BOUNDARY MISC KINETIC TOTAL TEMP POTENTIAL TOTAL3 TEMPAVG PRESSURE GPRESSURE VOLUME PRESSAVG GPRESSAVG
ENERGY: 400000 0.0000 0.0000 0.0000 0.0000 -13613.9236 2237.1083 0.0000 0.0000 703.3628 -10673.4526 121.1322 -11376.8153 -10672.2512 121.1322 -612.4267 -557.4456 28857.0260 -612.4267 -557.4456
ENERGY: 500000 0.0000 0.0000 0.0000 0.0000 -13524.9858 2274.4984 0.0000 0.0000 897.2003 -10353.2871 154.5146 -11250.4874 -10351.8261 149.9444 161.0725 259.9882 28669.3472 2.1799 2.0961
TCL: Running 100000 steps at 180 kelvin.
TCL: Setting parameter langevinTemp to 180
TCL: Running for 100000 steps
ETITLE: TS BOND ANGLE DIHED IMPRP ELECT VDW BOUNDARY MISC KINETIC TOTAL TEMP POTENTIAL TOTAL3 TEMPAVG PRESSURE GPRESSURE VOLUME PRESSAVG GPRESSAVG
ENERGY: 500000 0.0000 0.0000 0.0000 0.0000 -13524.9858 2274.4984 0.0000 0.0000 896.7510 -10353.7365 154.4372 -11250.4874 -10351.7954 154.4372 196.2929 259.0266 28669.3472 196.2929 259.0266
ENERGY: 600000 0.0000 0.0000 0.0000 0.0000 -12986.6444 2040.9098 0.0000 0.0000 1066.0291 -9879.7055 183.5901 -10945.7346 -9875.5508 180.0955 -465.3773 -391.3416 28710.0131 3.4311 3.4847
TCL: Running 100000 steps at 210 kelvin.
TCL: Setting parameter langevinTemp to 210
TCL: Running for 100000 steps
ETITLE: TS BOND ANGLE DIHED IMPRP ELECT VDW BOUNDARY MISC KINETIC TOTAL TEMP POTENTIAL TOTAL3 TEMPAVG PRESSURE GPRESSURE VOLUME PRESSAVG GPRESSAVG
ENERGY: 600000 0.0000 0.0000 0.0000 0.0000 -12986.6444 2040.9098 0.0000 0.0000 1065.4926 -9880.2420 183.4977 -10945.7346 -9878.3139 183.4977 -462.4718 -389.2636 28710.0131 -462.4718 -389.2636
ENERGY: 700000 0.0000 0.0000 0.0000 0.0000 -12356.8189 1946.4268 0.0000 0.0000 1201.8069 -9208.5851 206.9736 -10410.3921 -9207.4732 209.5471 702.9805 757.0360 28449.1474 2.8592 2.8010
TCL: Running 100000 steps at 240 kelvin.
TCL: Setting parameter langevinTemp to 240
TCL: Running for 100000 steps
ETITLE: TS BOND ANGLE DIHED IMPRP ELECT VDW BOUNDARY MISC KINETIC TOTAL TEMP POTENTIAL TOTAL3 TEMPAVG PRESSURE GPRESSURE VOLUME PRESSAVG GPRESSAVG
ENERGY: 700000 0.0000 0.0000 0.0000 0.0000 -12356.8189 1946.4268 0.0000 0.0000 1201.1727 -9209.2194 206.8643 -10410.3921 -9207.6311 206.8643 681.7997 756.0131 28449.1474 681.7997 756.0131
ENERGY: 800000 0.0000 0.0000 0.0000 0.0000 -11700.1417 1645.0795 0.0000 0.0000 1459.6267 -8595.4355 251.3749 -10055.0623 -8592.4905 240.2311 -489.8426 -425.8259 28704.7698 3.0582 3.1868
TCL: Running 100000 steps at 270 kelvin.
TCL: Setting parameter langevinTemp to 270
TCL: Running for 100000 steps
ETITLE: TS BOND ANGLE DIHED IMPRP ELECT VDW BOUNDARY MISC KINETIC TOTAL TEMP POTENTIAL TOTAL3 TEMPAVG PRESSURE GPRESSURE VOLUME PRESSAVG GPRESSAVG
ENERGY: 800000 0.0000 0.0000 0.0000 0.0000 -11700.1417 1645.0795 0.0000 0.0000 1458.9340 -8596.1283 251.2556 -10055.0623 -8594.4342 251.2556 -483.8855 -425.5898 28704.7698 -483.8855 -425.5898
ENERGY: 900000 0.0000 0.0000 0.0000 0.0000 -11177.4129 1529.1831 0.0000 0.0000 1602.5760 -8045.6538 275.9935 -9648.2298 -8041.6662 270.1278 -167.1749 -30.9961 29228.2408 3.8474 3.8836
TCL: Running 1000000 steps at 300 kelvin.
TCL: Setting parameter langevinTemp to 300
TCL: Running for 1000000 steps
ETITLE: TS BOND ANGLE DIHED IMPRP ELECT VDW BOUNDARY MISC KINETIC TOTAL TEMP POTENTIAL TOTAL3 TEMPAVG PRESSURE GPRESSURE VOLUME PRESSAVG GPRESSAVG
ENERGY: 900000 0.0000 0.0000 0.0000 0.0000 -11177.4129 1529.1831 0.0000 0.0000 1601.8070 -8046.4228 275.8610 -9648.2298 -8044.1996 275.8610 -119.3741 -30.3932 29228.2408 -119.3741 -30.3932
ENERGY: 1100000 0.0000 0.0000 0.0000 0.0000 -10613.0126 1363.2552 0.0000 0.0000 1694.3953 -7555.3621 291.8065 -9249.7574 -7553.0608 300.4128 -778.6023 -668.6478 30436.5582 3.5863 3.5189
ENERGY: 1300000 0.0000 0.0000 0.0000 0.0000 -10747.7277 1479.9691 0.0000 0.0000 1752.0877 -7515.6708 301.7422 -9267.7586 -7514.2621 299.9003 477.1474 505.7691 29904.5734 1.1218 1.2055
ENERGY: 1500000 0.0000 0.0000 0.0000 0.0000 -10634.8965 1406.6477 0.0000 0.0000 1765.8289 -7462.4199 304.1087 -9228.2488 -7459.9094 300.5038 116.4217 117.1995 29833.0011 4.1494 4.0188
ENERGY: 1700000 0.0000 0.0000 0.0000 0.0000 -10582.8071 1353.7803 0.0000 0.0000 1736.4506 -7492.5762 299.0492 -9229.0268 -7488.9170 300.3925 -436.0716 -410.4953 29927.2471 1.7302 1.7153
ENERGY: 1900000 0.0000 0.0000 0.0000 0.0000 -10485.3954 1331.6509 0.0000 0.0000 1741.7714 -7411.9731 299.9655 -9153.7445 -7406.9350 300.5052 -672.6001 -582.3327 30550.7229 3.5744 3.5660
TCL: Exiting due to exit command.
