Info: SIMULATION PARAMETERS:
Info: TIMESTEP               2
Info: NUMBER OF STEPS        0
Info: STEPS PER CYCLE        10
Info: PERIODIC CELL BASIS 1  40.176 0 0
Info: PERIODIC CELL BASIS 2  0 34.696 0
Info: PERIODIC CELL BASIS 3  0 0 31.349
Info: PERIODIC CELL CENTER   0 0 0
Info: WRAPPING WATERS AROUND PERIODIC BOUNDARIES ON OUTPUT.
Info: WRAPPING ALL CLUSTERS AROUND PERIODIC BOUNDARIES ON OUTPUT.
Info: FIRST LDB TIMESTEP     50
Info: LAST LDB TIMESTEP     -1
Info: HOM BACKGROUND SCALING 1
Info: PME BACKGROUND SCALING 1
Info: MIN ATOMS PER PATCH    40
Info: EMPTY PATCH LOAD       40 ATOMS
Info: INITIAL TEMPERATURE    300
Info: CENTER OF MASS MOVING INITIALLY? NO
Info: DIELECTRIC             1
Info: EXCLUDE                SCALED ONE-FOUR
Info: 1-4 ELECTROSTATICS SCALED BY 0.833333
Info: MODIFIED 1-4 VDW PARAMETERS WILL BE USED
Info: DCD FILENAME           mobley_1469079_equil.dcd
Info: DCD FREQUENCY          100000
Info: DCD FIRST STEP         100000
Info: DCD FILE WILL CONTAIN UNIT CELL DATA
Info: XST FILENAME           mobley_1469079_equil.xst
Info: XST FREQUENCY          100000
Info: NO VELOCITY DCD OUTPUT
Info: NO FORCE DCD OUTPUT
Info: OUTPUT FILENAME        mobley_1469079_equil
Info: BINARY OUTPUT FILES WILL BE USED
Info: RESTART FILENAME       mobley_1469079_equil.restart
Info: RESTART FREQUENCY      100000
Info: BINARY RESTART FILES WILL BE USED
Info: CUTOFF                 9
Info: PAIRLIST DISTANCE      11
Info: PAIRLIST SHRINK RATE   0.01
Info: PAIRLIST GROW RATE     0.01
Info: PAIRLIST TRIGGER       0.3
Info: PAIRLISTS PER CYCLE    2
Info: PAIRLISTS ENABLED
Info: MARGIN                 8
Info: HYDROGEN GROUP CUTOFF  2.5
Info: PATCH DIMENSION        21.5
Info: ENERGY OUTPUT STEPS    100000
Info: ENERGY EVALUATION STEPS    100000
Info: OUTPUT ENERGY PRECISION 4
Info: CROSSTERM ENERGY INCLUDED IN DIHEDRAL
Info: TIMING OUTPUT STEPS    1000000
Info: PRESSURE OUTPUT STEPS  100000
Info: FIXED ATOMS ACTIVE
Info: LANGEVIN DYNAMICS ACTIVE
Info: LANGEVIN TEMPERATURE   30
Info: LANGEVIN USING BBK INTEGRATOR
Info: LANGEVIN DAMPING COEFFICIENT IS 1 INVERSE PS
Info: LANGEVIN DYNAMICS APPLIED TO HYDROGENS
Info: LANGEVIN PISTON PRESSURE CONTROL ACTIVE
Info:        TARGET PRESSURE IS 1.01325 BAR
Info:     OSCILLATION PERIOD IS 50 FS
Info:             DECAY TIME IS 25 FS
Info:     PISTON TEMPERATURE IS 300 K
Info:       PRESSURE CONTROL IS GROUP-BASED
Info:    INITIAL STRAIN RATE IS 0 0 0
Info:       CELL FLUCTUATION IS ISOTROPIC
Info: PARTICLE MESH EWALD (PME) ACTIVE
Info: PME TOLERANCE               1e-06
Info: PME EWALD COEFFICIENT       0.348832
Info: PME INTERPOLATION ORDER     4
Info: PME GRID DIMENSIONS         44 36 32
Info: PME MAXIMUM GRID SPACING    1
Info: FULL ELECTROSTATIC EVALUATION FREQUENCY      2
Info: USING VERLET I (r-RESPA) MTS SCHEME.
Info: C1 SPLITTING OF LONG RANGE ELECTROSTATICS
Info: PLACING ATOMS IN PATCHES BY HYDROGEN GROUPS
Info: RIGID BONDS TO HYDROGEN : ALL
Info:         ERROR TOLERANCE : 1e-08
Info:          MAX ITERATIONS : 100
Info: RIGID WATER USING SETTLE ALGORITHM
Info: RANDOM NUMBER SEED     1744678829
Info: USE HYDROGEN BONDS?    NO
Info: Using AMBER format force field!
Info: AMBER PARM FILE        mobley_1469079.prmtop
Info: COORDINATE PDB         mobley_1469079.pdb
Info: Exclusions will be read from PARM file!
Info: SCNB (VDW SCALING)     2
Info: USING ARITHMETIC MEAN TO COMBINE L-J SIGMA PARAMETERS
Info: BINARY COORDINATES     mobley_1469079_min.coor
Info: SUMMARY OF PARAMETERS:
Info: 6 BONDS
Info: 5 ANGLES
Info:   5 HARMONIC
Info:   0 COSINE-BASED
Info: 3 DIHEDRAL
Info: 0 IMPROPER
Info: 0 CROSSTERM
Info: 0 VDW
Info: 21 VDW_PAIRS
Info: 0 NBTHOLE_PAIRS
Info: STRUCTURE SUMMARY:
Info: 2974 ATOMS
Info: 2976 BONDS
Info: 38 ANGLES
Info: 68 DIHEDRALS
Info: 0 IMPROPERS
Info: 0 CROSSTERMS
Info: 3061 EXCLUSIONS
Info: 22 FIXED ATOMS
Info: 2958 RIGID BONDS
Info: 6 RIGID BONDS BETWEEN FIXED ATOMS
Info: 5904 DEGREES OF FREEDOM
Info: 1000 HYDROGEN GROUPS
Info: 3 ATOMS IN LARGEST HYDROGEN GROUP
Info: 1000 MIGRATION GROUPS
Info: 3 ATOMS IN LARGEST MIGRATION GROUP
Info: 16 HYDROGEN GROUPS WITH ALL ATOMS FIXED
Info: TOTAL MASS = 17980.8 amu
Info: TOTAL CHARGE = 0.000100005 e
Info: MASS DENSITY = 0.68328 g/cm^3
Info: ATOM DENSITY = 0.0680567 atoms/A^3
Info: ADDED 0 IMPLICIT EXCLUSIONS
Info: NONBONDED TABLE R-SQUARED SPACING: 0.0625
Info: NONBONDED TABLE SIZE: 705 POINTS
Info: REMOVING COM VELOCITY 0.141191 -0.180097 0.00610744
TCL: Running for 100000 steps
ETITLE: TS BOND ANGLE DIHED IMPRP ELECT VDW BOUNDARY MISC KINETIC TOTAL TEMP POTENTIAL TOTAL3 TEMPAVG PRESSURE GPRESSURE VOLUME PRESSAVG GPRESSAVG
ENERGY: 0 0.0000 0.0000 0.0000 0.0000 -13711.2175 2386.4328 0.0000 0.0000 1699.2536 -9625.5311 289.6691 -11324.7847 -9625.1983 289.6691 352.3252 379.6744 43698.8287 352.3252 379.6744
ENERGY: 100000 0.0000 0.0000 0.0000 0.0000 -14135.0051 2340.5253 0.0000 0.0000 176.0932 -11618.3866 30.0183 -11794.4798 -11617.9646 30.8856 -1126.0482 -1084.6168 30070.0719 3.9915 4.0024
TCL: Running 100000 steps at 60 kelvin.
TCL: Setting parameter langevinTemp to 60
TCL: Running for 100000 steps
ETITLE: TS BOND ANGLE DIHED IMPRP ELECT VDW BOUNDARY MISC KINETIC TOTAL TEMP POTENTIAL TOTAL3 TEMPAVG PRESSURE GPRESSURE VOLUME PRESSAVG GPRESSAVG
ENERGY: 100000 0.0000 0.0000 0.0000 0.0000 -14135.0051 2340.5253 0.0000 0.0000 176.0056 -11618.4742 30.0034 -11794.4798 -11618.0489 30.0034 -1142.1744 -1084.6585 30070.0719 -1142.1744 -1084.6585
ENERGY: 200000 0.0000 0.0000 0.0000 0.0000 -14084.7479 2356.7268 0.0000 0.0000 361.0754 -11366.9456 61.5520 -11728.0210 -11366.1974 60.0879 -779.8106 -710.3203 29897.9860 4.7087 4.6802
TCL: Running 100000 steps at 90 kelvin.
TCL: Setting parameter langevinTemp to 90
TCL: Running for 100000 steps
ETITLE: TS BOND ANGLE DIHED IMPRP ELECT VDW BOUNDARY MISC KINETIC TOTAL TEMP POTENTIAL TOTAL3 TEMPAVG PRESSURE GPRESSURE VOLUME PRESSAVG GPRESSAVG
ENERGY: 200000 0.0000 0.0000 0.0000 0.0000 -14084.7479 2356.7268 0.0000 0.0000 360.9013 -11367.1198 61.5223 -11728.0210 -11366.2709 61.5223 -763.9606 -710.8820 29897.9860 -763.9606 -710.8820
ENERGY: 300000 0.0000 0.0000 0.0000 0.0000 -13963.9789 2330.3410 0.0000 0.0000 525.0394 -11108.5985 89.5027 -11633.6379 -11106.1603 89.7369 -697.0694 -641.1171 29903.6026 3.6210 3.5796
TCL: Running 100000 steps at 120 kelvin.
TCL: Setting parameter langevinTemp to 120
TCL: Running for 100000 steps
ETITLE: TS BOND ANGLE DIHED IMPRP ELECT VDW BOUNDARY MISC KINETIC TOTAL TEMP POTENTIAL TOTAL3 TEMPAVG PRESSURE GPRESSURE VOLUME PRESSAVG GPRESSAVG
ENERGY: 300000 0.0000 0.0000 0.0000 0.0000 -13963.9789 2330.3410 0.0000 0.0000 524.7838 -11108.8540 89.4591 -11633.6379 -11107.7768 89.4591 -686.7004 -640.1398 29903.6026 -686.7004 -640.1398
ENERGY: 400000 0.0000 0.0000 0.0000 0.0000 -13737.3110 2226.6398 0.0000 0.0000 687.5153 -10823.1560 117.1997 -11510.6713 -10821.3763 120.0484 -1039.2361 -959.1667 29877.3671 4.7698 4.6377
TCL: Running 100000 steps at 150 kelvin.
TCL: Setting parameter langevinTemp to 150
TCL: Running for 100000 steps
ETITLE: TS BOND ANGLE DIHED IMPRP ELECT VDW BOUNDARY MISC KINETIC TOTAL TEMP POTENTIAL TOTAL3 TEMPAVG PRESSURE GPRESSURE VOLUME PRESSAVG GPRESSAVG
ENERGY: 400000 0.0000 0.0000 0.0000 0.0000 -13737.3110 2226.6398 0.0000 0.0000 687.1596 -10823.5117 117.1390 -11510.6713 -10821.8038 117.1390 -1009.4091 -958.8898 29877.3671 -1009.4091 -958.8898
ENERGY: 500000 0.0000 0.0000 0.0000 0.0000 -13625.2343 2283.7100 0.0000 0.0000 872.1602 -10469.3641 148.6758 -11341.5243 -10467.8492 149.7217 205.2630 302.1889 29289.2047 4.9605 5.1164
TCL: Running 100000 steps at 180 kelvin.
TCL: Setting parameter langevinTemp to 180
TCL: Running for 100000 steps
ETITLE: TS BOND ANGLE DIHED IMPRP ELECT VDW BOUNDARY MISC KINETIC TOTAL TEMP POTENTIAL TOTAL3 TEMPAVG PRESSURE GPRESSURE VOLUME PRESSAVG GPRESSAVG
ENERGY: 500000 0.0000 0.0000 0.0000 0.0000 -13625.2343 2283.7100 0.0000 0.0000 871.7129 -10469.8114 148.5996 -11341.5243 -10468.1559 148.5996 246.2832 301.9739 29289.2047 246.2832 301.9739
ENERGY: 600000 0.0000 0.0000 0.0000 0.0000 -13278.2744 2156.4767 0.0000 0.0000 1057.1959 -10064.6018 180.2185 -11121.7977 -10061.7483 180.2606 138.6162 180.0632 29126.1752 3.2730 3.3440
TCL: Running 100000 steps at 210 kelvin.
TCL: Setting parameter langevinTemp to 210
TCL: Running for 100000 steps
ETITLE: TS BOND ANGLE DIHED IMPRP ELECT VDW BOUNDARY MISC KINETIC TOTAL TEMP POTENTIAL TOTAL3 TEMPAVG PRESSURE GPRESSURE VOLUME PRESSAVG GPRESSAVG
ENERGY: 600000 0.0000 0.0000 0.0000 0.0000 -13278.2744 2156.4767 0.0000 0.0000 1056.6554 -10065.1423 180.1264 -11121.7977 -10062.8704 180.1264 132.5551 180.4755 29126.1752 132.5551 180.4755
ENERGY: 700000 0.0000 0.0000 0.0000 0.0000 -12398.5890 1777.1442 0.0000 0.0000 1194.1231 -9427.3217 203.5603 -10621.4448 -9424.6995 210.0742 -980.3902 -909.5150 29065.4588 3.4348 3.4336
TCL: Running 100000 steps at 240 kelvin.
TCL: Setting parameter langevinTemp to 240
TCL: Running for 100000 steps
ETITLE: TS BOND ANGLE DIHED IMPRP ELECT VDW BOUNDARY MISC KINETIC TOTAL TEMP POTENTIAL TOTAL3 TEMPAVG PRESSURE GPRESSURE VOLUME PRESSAVG GPRESSAVG
ENERGY: 700000 0.0000 0.0000 0.0000 0.0000 -12398.5890 1777.1442 0.0000 0.0000 1193.4809 -9427.9638 203.4509 -10621.4448 -9426.2028 203.4509 -974.3559 -908.3354 29065.4588 -974.3559 -908.3354
ENERGY: 800000 0.0000 0.0000 0.0000 0.0000 -11862.4270 1667.0313 0.0000 0.0000 1427.8141 -8767.5816 243.3973 -10195.3957 -8764.0797 239.7150 -342.4589 -255.6045 29199.6121 3.3462 3.2232
TCL: Running 100000 steps at 270 kelvin.
TCL: Setting parameter langevinTemp to 270
TCL: Running for 100000 steps
ETITLE: TS BOND ANGLE DIHED IMPRP ELECT VDW BOUNDARY MISC KINETIC TOTAL TEMP POTENTIAL TOTAL3 TEMPAVG PRESSURE GPRESSURE VOLUME PRESSAVG GPRESSAVG
ENERGY: 800000 0.0000 0.0000 0.0000 0.0000 -11862.4270 1667.0313 0.0000 0.0000 1427.1037 -8768.2920 243.2762 -10195.3957 -8765.3246 243.2762 -323.8250 -255.6643 29199.6121 -323.8250 -255.6643
ENERGY: 900000 0.0000 0.0000 0.0000 0.0000 -11321.4630 1620.0777 0.0000 0.0000 1552.0687 -8149.3166 264.5788 -9701.3853 -8143.0788 269.9250 539.5748 537.2720 29961.2787 3.0553 2.9873
TCL: Running 1000000 steps at 300 kelvin.
TCL: Setting parameter langevinTemp to 300
TCL: Running for 1000000 steps
ETITLE: TS BOND ANGLE DIHED IMPRP ELECT VDW BOUNDARY MISC KINETIC TOTAL TEMP POTENTIAL TOTAL3 TEMPAVG PRESSURE GPRESSURE VOLUME PRESSAVG GPRESSAVG
ENERGY: 900000 0.0000 0.0000 0.0000 0.0000 -11321.4630 1620.0777 0.0000 0.0000 1551.2692 -8150.1162 264.4425 -9701.3853 -8147.4457 264.4425 448.6483 539.6888 29961.2787 448.6483 539.6888
ENERGY: 1100000 0.0000 0.0000 0.0000 0.0000 -10824.9138 1524.5548 0.0000 0.0000 1772.7914 -7527.5676 302.2050 -9300.3590 -7524.0927 299.9733 712.1918 731.2538 30875.9438 2.7686 2.8703
ENERGY: 1300000 0.0000 0.0000 0.0000 0.0000 -10721.5621 1440.4504 0.0000 0.0000 1718.6285 -7562.4832 292.9720 -9281.1117 -7560.4531 299.7644 164.2592 239.2878 30691.0543 2.8989 2.9065
ENERGY: 1500000 0.0000 0.0000 0.0000 0.0000 -10824.6964 1460.2391 0.0000 0.0000 1715.9901 -7648.4671 292.5222 -9364.4573 -7644.3236 299.2810 506.0671 552.8256 29881.8945 2.8281 2.7269
ENERGY: 1700000 0.0000 0.0000 0.0000 0.0000 -10834.6213 1563.4347 0.0000 0.0000 1784.1120 -7487.0746 304.1348 -9271.1866 -7484.3404 300.7106 1286.7445 1377.4976 30465.0814 1.5692 1.5370
ENERGY: 1900000 0.0000 0.0000 0.0000 0.0000 -10793.2090 1444.6746 0.0000 0.0000 1772.7795 -7575.7550 302.2030 -9348.5344 -7575.0632 300.1970 -41.5473 51.6560 30839.4552 3.2426 3.1258
TCL: Exiting due to exit command.
