Info: SIMULATION PARAMETERS:
Info: TIMESTEP               2
Info: NUMBER OF STEPS        0
Info: STEPS PER CYCLE        10
Info: PERIODIC CELL BASIS 1  37.435 0 0
Info: PERIODIC CELL BASIS 2  0 36.032 0
Info: PERIODIC CELL BASIS 3  0 0 31.855
Info: PERIODIC CELL CENTER   0 0 0
Info: WRAPPING WATERS AROUND PERIODIC BOUNDARIES ON OUTPUT.
Info: WRAPPING ALL CLUSTERS AROUND PERIODIC BOUNDARIES ON OUTPUT.
Info: FIRST LDB TIMESTEP     50
Info: LAST LDB TIMESTEP     -1
Info: HOM BACKGROUND SCALING 1
Info: PME BACKGROUND SCALING 1
Info: MIN ATOMS PER PATCH    40
Info: EMPTY PATCH LOAD       40 ATOMS
Info: INITIAL TEMPERATURE    300
Info: CENTER OF MASS MOVING INITIALLY? NO
Info: DIELECTRIC             1
Info: EXCLUDE                SCALED ONE-FOUR
Info: 1-4 ELECTROSTATICS SCALED BY 0.833333
Info: MODIFIED 1-4 VDW PARAMETERS WILL BE USED
Info: DCD FILENAME           mobley_5063386_equil.dcd
Info: DCD FREQUENCY          100000
Info: DCD FIRST STEP         100000
Info: DCD FILE WILL CONTAIN UNIT CELL DATA
Info: XST FILENAME           mobley_5063386_equil.xst
Info: XST FREQUENCY          100000
Info: NO VELOCITY DCD OUTPUT
Info: NO FORCE DCD OUTPUT
Info: OUTPUT FILENAME        mobley_5063386_equil
Info: BINARY OUTPUT FILES WILL BE USED
Info: RESTART FILENAME       mobley_5063386_equil.restart
Info: RESTART FREQUENCY      100000
Info: BINARY RESTART FILES WILL BE USED
Info: CUTOFF                 9
Info: PAIRLIST DISTANCE      11
Info: PAIRLIST SHRINK RATE   0.01
Info: PAIRLIST GROW RATE     0.01
Info: PAIRLIST TRIGGER       0.3
Info: PAIRLISTS PER CYCLE    2
Info: PAIRLISTS ENABLED
Info: MARGIN                 8
Info: HYDROGEN GROUP CUTOFF  2.5
Info: PATCH DIMENSION        21.5
Info: ENERGY OUTPUT STEPS    100000
Info: ENERGY EVALUATION STEPS    100000
Info: OUTPUT ENERGY PRECISION 4
Info: CROSSTERM ENERGY INCLUDED IN DIHEDRAL
Info: TIMING OUTPUT STEPS    1000000
Info: PRESSURE OUTPUT STEPS  100000
Info: FIXED ATOMS ACTIVE
Info: LANGEVIN DYNAMICS ACTIVE
Info: LANGEVIN TEMPERATURE   30
Info: LANGEVIN USING BBK INTEGRATOR
Info: LANGEVIN DAMPING COEFFICIENT IS 1 INVERSE PS
Info: LANGEVIN DYNAMICS APPLIED TO HYDROGENS
Info: LANGEVIN PISTON PRESSURE CONTROL ACTIVE
Info:        TARGET PRESSURE IS 1.01325 BAR
Info:     OSCILLATION PERIOD IS 50 FS
Info:             DECAY TIME IS 25 FS
Info:     PISTON TEMPERATURE IS 300 K
Info:       PRESSURE CONTROL IS GROUP-BASED
Info:    INITIAL STRAIN RATE IS 0 0 0
Info:       CELL FLUCTUATION IS ISOTROPIC
Info: PARTICLE MESH EWALD (PME) ACTIVE
Info: PME TOLERANCE               1e-06
Info: PME EWALD COEFFICIENT       0.348832
Info: PME INTERPOLATION ORDER     4
Info: PME GRID DIMENSIONS         40 40 32
Info: PME MAXIMUM GRID SPACING    1
Info: FULL ELECTROSTATIC EVALUATION FREQUENCY      2
Info: USING VERLET I (r-RESPA) MTS SCHEME.
Info: C1 SPLITTING OF LONG RANGE ELECTROSTATICS
Info: PLACING ATOMS IN PATCHES BY HYDROGEN GROUPS
Info: RIGID BONDS TO HYDROGEN : ALL
Info:         ERROR TOLERANCE : 1e-08
Info:          MAX ITERATIONS : 100
Info: RIGID WATER USING SETTLE ALGORITHM
Info: RANDOM NUMBER SEED     1744090978
Info: USE HYDROGEN BONDS?    NO
Info: Using AMBER format force field!
Info: AMBER PARM FILE        mobley_5063386.prmtop
Info: COORDINATE PDB         mobley_5063386.pdb
Info: Exclusions will be read from PARM file!
Info: SCNB (VDW SCALING)     2
Info: USING ARITHMETIC MEAN TO COMBINE L-J SIGMA PARAMETERS
Info: BINARY COORDINATES     mobley_5063386_min.coor
Info: SUMMARY OF PARAMETERS:
Info: 8 BONDS
Info: 7 ANGLES
Info:   7 HARMONIC
Info:   0 COSINE-BASED
Info: 4 DIHEDRAL
Info: 0 IMPROPER
Info: 0 CROSSTERM
Info: 0 VDW
Info: 28 VDW_PAIRS
Info: 0 NBTHOLE_PAIRS
Info: STRUCTURE SUMMARY:
Info: 2949 ATOMS
Info: 2949 BONDS
Info: 22 ANGLES
Info: 36 DIHEDRALS
Info: 0 IMPROPERS
Info: 0 CROSSTERMS
Info: 2998 EXCLUSIONS
Info: 15 FIXED ATOMS
Info: 2939 RIGID BONDS
Info: 5 RIGID BONDS BETWEEN FIXED ATOMS
Info: 5868 DEGREES OF FREEDOM
Info: 988 HYDROGEN GROUPS
Info: 3 ATOMS IN LARGEST HYDROGEN GROUP
Info: 988 MIGRATION GROUPS
Info: 3 ATOMS IN LARGEST MIGRATION GROUP
Info: 10 HYDROGEN GROUPS WITH ALL ATOMS FIXED
Info: TOTAL MASS = 17758.8 amu
Info: TOTAL CHARGE = -9.99495e-05 e
Info: MASS DENSITY = 0.686322 g/cm^3
Info: ATOM DENSITY = 0.0686327 atoms/A^3
Info: ADDED 0 IMPLICIT EXCLUSIONS
Info: NONBONDED TABLE R-SQUARED SPACING: 0.0625
Info: NONBONDED TABLE SIZE: 705 POINTS
Info: REMOVING COM VELOCITY -0.0330588 0.182481 0.0850196
TCL: Running for 100000 steps
ETITLE: TS BOND ANGLE DIHED IMPRP ELECT VDW BOUNDARY MISC KINETIC TOTAL TEMP POTENTIAL TOTAL3 TEMPAVG PRESSURE GPRESSURE VOLUME PRESSAVG GPRESSAVG
ENERGY: 0 0.0000 0.0000 0.0000 0.0000 -13733.3427 2381.0598 0.0000 0.0000 1708.8999 -9643.3830 293.1007 -11352.2829 -9643.0589 293.1007 258.8806 286.7530 42967.8690 258.8806 286.7530
ENERGY: 100000 0.0000 0.0000 0.0000 0.0000 -14112.3722 2335.8186 0.0000 0.0000 173.9643 -11602.5894 29.8374 -11776.5537 -11602.1623 30.7906 -989.8353 -950.2916 29255.5839 4.5166 4.4986
TCL: Running 100000 steps at 60 kelvin.
TCL: Setting parameter langevinTemp to 60
TCL: Running for 100000 steps
ETITLE: TS BOND ANGLE DIHED IMPRP ELECT VDW BOUNDARY MISC KINETIC TOTAL TEMP POTENTIAL TOTAL3 TEMPAVG PRESSURE GPRESSURE VOLUME PRESSAVG GPRESSAVG
ENERGY: 100000 0.0000 0.0000 0.0000 0.0000 -14112.3722 2335.8186 0.0000 0.0000 173.8781 -11602.6756 29.8226 -11776.5537 -11602.3127 29.8226 -1004.0202 -950.4341 29255.5839 -1004.0202 -950.4341
ENERGY: 200000 0.0000 0.0000 0.0000 0.0000 -14038.6490 2331.3700 0.0000 0.0000 355.0726 -11352.2064 60.9000 -11707.2790 -11351.1834 59.8915 -727.5111 -657.9365 28877.6017 4.5680 4.6114
TCL: Running 100000 steps at 90 kelvin.
TCL: Setting parameter langevinTemp to 90
TCL: Running for 100000 steps
ETITLE: TS BOND ANGLE DIHED IMPRP ELECT VDW BOUNDARY MISC KINETIC TOTAL TEMP POTENTIAL TOTAL3 TEMPAVG PRESSURE GPRESSURE VOLUME PRESSAVG GPRESSAVG
ENERGY: 200000 0.0000 0.0000 0.0000 0.0000 -14038.6490 2331.3700 0.0000 0.0000 354.8967 -11352.3823 60.8698 -11707.2790 -11351.6283 60.8698 -708.5800 -657.8153 28877.6017 -708.5800 -657.8153
ENERGY: 300000 0.0000 0.0000 0.0000 0.0000 -14009.9881 2408.1057 0.0000 0.0000 526.6716 -11075.2108 90.3317 -11601.8824 -11073.7791 90.0073 354.3106 389.0340 28797.5243 3.1687 3.1850
TCL: Running 100000 steps at 120 kelvin.
TCL: Setting parameter langevinTemp to 120
TCL: Running for 100000 steps
ETITLE: TS BOND ANGLE DIHED IMPRP ELECT VDW BOUNDARY MISC KINETIC TOTAL TEMP POTENTIAL TOTAL3 TEMPAVG PRESSURE GPRESSURE VOLUME PRESSAVG GPRESSAVG
ENERGY: 300000 0.0000 0.0000 0.0000 0.0000 -14009.9881 2408.1057 0.0000 0.0000 526.4060 -11075.4764 90.2861 -11601.8824 -11074.8679 90.2861 331.3599 389.3736 28797.5243 331.3599 389.3736
ENERGY: 400000 0.0000 0.0000 0.0000 0.0000 -13815.2718 2339.3225 0.0000 0.0000 701.4188 -10774.5305 120.3033 -11475.9493 -10773.0411 120.0398 124.4374 163.7537 29028.7750 2.7736 2.8104
TCL: Running 100000 steps at 150 kelvin.
TCL: Setting parameter langevinTemp to 150
TCL: Running for 100000 steps
ETITLE: TS BOND ANGLE DIHED IMPRP ELECT VDW BOUNDARY MISC KINETIC TOTAL TEMP POTENTIAL TOTAL3 TEMPAVG PRESSURE GPRESSURE VOLUME PRESSAVG GPRESSAVG
ENERGY: 400000 0.0000 0.0000 0.0000 0.0000 -13815.2718 2339.3225 0.0000 0.0000 701.0738 -10774.8755 120.2442 -11475.9493 -10773.5559 120.2442 109.8157 163.5940 29028.7750 109.8157 163.5940
ENERGY: 500000 0.0000 0.0000 0.0000 0.0000 -13588.9950 2254.9011 0.0000 0.0000 867.4324 -10466.6616 148.7770 -11334.0940 -10464.2599 150.1096 -118.3394 -104.4063 29175.3710 4.2351 4.3095
TCL: Running 100000 steps at 180 kelvin.
TCL: Setting parameter langevinTemp to 180
TCL: Running for 100000 steps
ETITLE: TS BOND ANGLE DIHED IMPRP ELECT VDW BOUNDARY MISC KINETIC TOTAL TEMP POTENTIAL TOTAL3 TEMPAVG PRESSURE GPRESSURE VOLUME PRESSAVG GPRESSAVG
ENERGY: 500000 0.0000 0.0000 0.0000 0.0000 -13588.9950 2254.9011 0.0000 0.0000 866.9823 -10467.1117 148.6998 -11334.0940 -10465.6722 148.6998 -147.7378 -103.7032 29175.3710 -147.7378 -103.7032
ENERGY: 600000 0.0000 0.0000 0.0000 0.0000 -13033.5242 2042.7674 0.0000 0.0000 1067.2287 -9923.5281 183.0450 -10990.7568 -9921.6102 180.1050 -271.5761 -221.3461 28759.7158 4.1994 3.9492
TCL: Running 100000 steps at 210 kelvin.
TCL: Setting parameter langevinTemp to 210
TCL: Running for 100000 steps
ETITLE: TS BOND ANGLE DIHED IMPRP ELECT VDW BOUNDARY MISC KINETIC TOTAL TEMP POTENTIAL TOTAL3 TEMPAVG PRESSURE GPRESSURE VOLUME PRESSAVG GPRESSAVG
ENERGY: 600000 0.0000 0.0000 0.0000 0.0000 -13033.5242 2042.7674 0.0000 0.0000 1066.6935 -9924.0632 182.9532 -10990.7568 -9922.0455 182.9532 -289.1284 -221.8937 28759.7158 -289.1284 -221.8937
ENERGY: 700000 0.0000 0.0000 0.0000 0.0000 -12390.9035 1869.4402 0.0000 0.0000 1201.4973 -9319.9660 206.0739 -10521.4633 -9315.6776 210.4211 -1.9673 58.5191 28675.0271 3.6578 3.6050
TCL: Running 100000 steps at 240 kelvin.
TCL: Setting parameter langevinTemp to 240
TCL: Running for 100000 steps
ETITLE: TS BOND ANGLE DIHED IMPRP ELECT VDW BOUNDARY MISC KINETIC TOTAL TEMP POTENTIAL TOTAL3 TEMPAVG PRESSURE GPRESSURE VOLUME PRESSAVG GPRESSAVG
ENERGY: 700000 0.0000 0.0000 0.0000 0.0000 -12390.9035 1869.4402 0.0000 0.0000 1200.8854 -9320.5778 205.9690 -10521.4633 -9318.4517 205.9690 -13.0914 57.5845 28675.0271 -13.0914 57.5845
ENERGY: 800000 0.0000 0.0000 0.0000 0.0000 -11961.6158 1803.4128 0.0000 0.0000 1421.6355 -8736.5674 243.8308 -10158.2030 -8734.5913 240.3148 659.3433 720.8950 28960.3384 3.4515 3.4500
TCL: Running 100000 steps at 270 kelvin.
TCL: Setting parameter langevinTemp to 270
TCL: Running for 100000 steps
ETITLE: TS BOND ANGLE DIHED IMPRP ELECT VDW BOUNDARY MISC KINETIC TOTAL TEMP POTENTIAL TOTAL3 TEMPAVG PRESSURE GPRESSURE VOLUME PRESSAVG GPRESSAVG
ENERGY: 800000 0.0000 0.0000 0.0000 0.0000 -11961.6158 1803.4128 0.0000 0.0000 1420.9091 -8737.2938 243.7062 -10158.2030 -8735.3525 243.7062 631.8619 721.3149 28960.3384 631.8619 721.3149
ENERGY: 900000 0.0000 0.0000 0.0000 0.0000 -11225.2774 1514.3972 0.0000 0.0000 1571.1627 -8139.7175 269.4768 -9710.8802 -8137.2489 270.1248 -742.1366 -635.1177 30071.9674 3.4424 3.3257
TCL: Running 1000000 steps at 300 kelvin.
TCL: Setting parameter langevinTemp to 300
TCL: Running for 1000000 steps
ETITLE: TS BOND ANGLE DIHED IMPRP ELECT VDW BOUNDARY MISC KINETIC TOTAL TEMP POTENTIAL TOTAL3 TEMPAVG PRESSURE GPRESSURE VOLUME PRESSAVG GPRESSAVG
ENERGY: 900000 0.0000 0.0000 0.0000 0.0000 -11225.2774 1514.3972 0.0000 0.0000 1570.3591 -8140.5211 269.3390 -9710.8802 -8137.9286 269.3390 -720.5686 -636.6129 30071.9674 -720.5686 -636.6129
ENERGY: 1100000 0.0000 0.0000 0.0000 0.0000 -10813.2501 1406.0117 0.0000 0.0000 1786.4003 -7620.8381 306.3932 -9407.2384 -7617.3010 299.9771 -125.3421 -55.7073 29875.8973 3.6427 3.8148
ENERGY: 1300000 0.0000 0.0000 0.0000 0.0000 -10742.5638 1445.8003 0.0000 0.0000 1782.5918 -7514.1717 305.7399 -9296.7635 -7511.3474 300.1207 324.3010 386.6525 30250.1179 2.1089 2.0182
ENERGY: 1500000 0.0000 0.0000 0.0000 0.0000 -10754.3657 1522.3898 0.0000 0.0000 1787.7078 -7444.2681 306.6174 -9231.9760 -7440.8208 300.0505 1109.4978 1181.2052 30121.4759 3.0708 3.0212
ENERGY: 1700000 0.0000 0.0000 0.0000 0.0000 -10651.6959 1368.7878 0.0000 0.0000 1758.9236 -7523.9845 301.6805 -9282.9081 -7522.6294 299.7042 -320.6468 -198.0262 30252.1500 3.4293 3.4950
ENERGY: 1900000 0.0000 0.0000 0.0000 0.0000 -10793.9501 1431.9819 0.0000 0.0000 1704.9960 -7656.9722 292.4312 -9361.9682 -7655.3847 299.8790 -119.7654 -120.1803 30490.9415 2.8894 2.7326
TCL: Exiting due to exit command.
