Info: SIMULATION PARAMETERS:
Info: TIMESTEP               2
Info: NUMBER OF STEPS        0
Info: STEPS PER CYCLE        10
Info: PERIODIC CELL BASIS 1  37.968 0 0
Info: PERIODIC CELL BASIS 2  0 35.779 0
Info: PERIODIC CELL BASIS 3  0 0 31.855
Info: PERIODIC CELL CENTER   0 0 0
Info: WRAPPING WATERS AROUND PERIODIC BOUNDARIES ON OUTPUT.
Info: WRAPPING ALL CLUSTERS AROUND PERIODIC BOUNDARIES ON OUTPUT.
Info: FIRST LDB TIMESTEP     50
Info: LAST LDB TIMESTEP     -1
Info: HOM BACKGROUND SCALING 1
Info: PME BACKGROUND SCALING 1
Info: MIN ATOMS PER PATCH    40
Info: EMPTY PATCH LOAD       40 ATOMS
Info: INITIAL TEMPERATURE    300
Info: CENTER OF MASS MOVING INITIALLY? NO
Info: DIELECTRIC             1
Info: EXCLUDE                SCALED ONE-FOUR
Info: 1-4 ELECTROSTATICS SCALED BY 0.833333
Info: MODIFIED 1-4 VDW PARAMETERS WILL BE USED
Info: DCD FILENAME           mobley_2751110_equil.dcd
Info: DCD FREQUENCY          100000
Info: DCD FIRST STEP         100000
Info: DCD FILE WILL CONTAIN UNIT CELL DATA
Info: XST FILENAME           mobley_2751110_equil.xst
Info: XST FREQUENCY          100000
Info: NO VELOCITY DCD OUTPUT
Info: NO FORCE DCD OUTPUT
Info: OUTPUT FILENAME        mobley_2751110_equil
Info: BINARY OUTPUT FILES WILL BE USED
Info: RESTART FILENAME       mobley_2751110_equil.restart
Info: RESTART FREQUENCY      100000
Info: BINARY RESTART FILES WILL BE USED
Info: CUTOFF                 9
Info: PAIRLIST DISTANCE      11
Info: PAIRLIST SHRINK RATE   0.01
Info: PAIRLIST GROW RATE     0.01
Info: PAIRLIST TRIGGER       0.3
Info: PAIRLISTS PER CYCLE    2
Info: PAIRLISTS ENABLED
Info: MARGIN                 8
Info: HYDROGEN GROUP CUTOFF  2.5
Info: PATCH DIMENSION        21.5
Info: ENERGY OUTPUT STEPS    100000
Info: ENERGY EVALUATION STEPS    100000
Info: OUTPUT ENERGY PRECISION 4
Info: CROSSTERM ENERGY INCLUDED IN DIHEDRAL
Info: TIMING OUTPUT STEPS    1000000
Info: PRESSURE OUTPUT STEPS  100000
Info: FIXED ATOMS ACTIVE
Info: LANGEVIN DYNAMICS ACTIVE
Info: LANGEVIN TEMPERATURE   30
Info: LANGEVIN USING BBK INTEGRATOR
Info: LANGEVIN DAMPING COEFFICIENT IS 1 INVERSE PS
Info: LANGEVIN DYNAMICS APPLIED TO HYDROGENS
Info: LANGEVIN PISTON PRESSURE CONTROL ACTIVE
Info:        TARGET PRESSURE IS 1.01325 BAR
Info:     OSCILLATION PERIOD IS 50 FS
Info:             DECAY TIME IS 25 FS
Info:     PISTON TEMPERATURE IS 300 K
Info:       PRESSURE CONTROL IS GROUP-BASED
Info:    INITIAL STRAIN RATE IS 0 0 0
Info:       CELL FLUCTUATION IS ISOTROPIC
Info: PARTICLE MESH EWALD (PME) ACTIVE
Info: PME TOLERANCE               1e-06
Info: PME EWALD COEFFICIENT       0.348832
Info: PME INTERPOLATION ORDER     4
Info: PME GRID DIMENSIONS         40 36 32
Info: PME MAXIMUM GRID SPACING    1
Info: FULL ELECTROSTATIC EVALUATION FREQUENCY      2
Info: USING VERLET I (r-RESPA) MTS SCHEME.
Info: C1 SPLITTING OF LONG RANGE ELECTROSTATICS
Info: PLACING ATOMS IN PATCHES BY HYDROGEN GROUPS
Info: RIGID BONDS TO HYDROGEN : ALL
Info:         ERROR TOLERANCE : 1e-08
Info:          MAX ITERATIONS : 100
Info: RIGID WATER USING SETTLE ALGORITHM
Info: RANDOM NUMBER SEED     1744090429
Info: USE HYDROGEN BONDS?    NO
Info: Using AMBER format force field!
Info: AMBER PARM FILE        mobley_2751110.prmtop
Info: COORDINATE PDB         mobley_2751110.pdb
Info: Exclusions will be read from PARM file!
Info: SCNB (VDW SCALING)     2
Info: USING ARITHMETIC MEAN TO COMBINE L-J SIGMA PARAMETERS
Info: BINARY COORDINATES     mobley_2751110_min.coor
Info: SUMMARY OF PARAMETERS:
Info: 8 BONDS
Info: 7 ANGLES
Info:   7 HARMONIC
Info:   0 COSINE-BASED
Info: 4 DIHEDRAL
Info: 0 IMPROPER
Info: 0 CROSSTERM
Info: 0 VDW
Info: 28 VDW_PAIRS
Info: 0 NBTHOLE_PAIRS
Info: STRUCTURE SUMMARY:
Info: 2979 ATOMS
Info: 2979 BONDS
Info: 22 ANGLES
Info: 36 DIHEDRALS
Info: 0 IMPROPERS
Info: 0 CROSSTERMS
Info: 3028 EXCLUSIONS
Info: 15 FIXED ATOMS
Info: 2969 RIGID BONDS
Info: 5 RIGID BONDS BETWEEN FIXED ATOMS
Info: 5928 DEGREES OF FREEDOM
Info: 998 HYDROGEN GROUPS
Info: 3 ATOMS IN LARGEST HYDROGEN GROUP
Info: 998 MIGRATION GROUPS
Info: 3 ATOMS IN LARGEST MIGRATION GROUP
Info: 10 HYDROGEN GROUPS WITH ALL ATOMS FIXED
Info: TOTAL MASS = 17938.9 amu
Info: TOTAL CHARGE = 3.72529e-08 e
Info: MASS DENSITY = 0.688386 g/cm^3
Info: ATOM DENSITY = 0.068841 atoms/A^3
Info: ADDED 0 IMPLICIT EXCLUSIONS
Info: NONBONDED TABLE R-SQUARED SPACING: 0.0625
Info: NONBONDED TABLE SIZE: 705 POINTS
Info: REMOVING COM VELOCITY 0.260667 -0.104196 -0.0366963
TCL: Running for 100000 steps
ETITLE: TS BOND ANGLE DIHED IMPRP ELECT VDW BOUNDARY MISC KINETIC TOTAL TEMP POTENTIAL TOTAL3 TEMPAVG PRESSURE GPRESSURE VOLUME PRESSAVG GPRESSAVG
ENERGY: 0 0.0000 0.0000 0.0000 0.0000 -13907.3365 2388.8544 0.0000 0.0000 1765.2081 -9753.2740 299.6940 -11518.4821 -9752.9288 299.6940 172.2967 198.5315 43273.6500 172.2967 198.5315
ENERGY: 100000 0.0000 0.0000 0.0000 0.0000 -14391.9466 2473.7659 0.0000 0.0000 181.4687 -11736.7120 30.8094 -11918.1806 -11736.3269 30.8923 99.1777 152.4137 28787.6122 3.9529 3.8983
TCL: Running 100000 steps at 60 kelvin.
TCL: Setting parameter langevinTemp to 60
TCL: Running for 100000 steps
ETITLE: TS BOND ANGLE DIHED IMPRP ELECT VDW BOUNDARY MISC KINETIC TOTAL TEMP POTENTIAL TOTAL3 TEMPAVG PRESSURE GPRESSURE VOLUME PRESSAVG GPRESSAVG
ENERGY: 100000 0.0000 0.0000 0.0000 0.0000 -14391.9466 2473.7659 0.0000 0.0000 181.3774 -11736.8033 30.7939 -11918.1806 -11736.3990 30.7939 94.4169 152.1241 28787.6122 94.4169 152.1241
ENERGY: 200000 0.0000 0.0000 0.0000 0.0000 -14292.7469 2447.0293 0.0000 0.0000 349.6101 -11496.1076 59.3562 -11845.7177 -11495.0357 59.9692 142.5141 195.8457 28626.8096 4.2582 4.0788
TCL: Running 100000 steps at 90 kelvin.
TCL: Setting parameter langevinTemp to 90
TCL: Running for 100000 steps
ETITLE: TS BOND ANGLE DIHED IMPRP ELECT VDW BOUNDARY MISC KINETIC TOTAL TEMP POTENTIAL TOTAL3 TEMPAVG PRESSURE GPRESSURE VOLUME PRESSAVG GPRESSAVG
ENERGY: 200000 0.0000 0.0000 0.0000 0.0000 -14292.7469 2447.0293 0.0000 0.0000 349.4341 -11496.2835 59.3263 -11845.7177 -11495.4680 59.3263 144.3895 195.6209 28626.8096 144.3895 195.6209
ENERGY: 300000 0.0000 0.0000 0.0000 0.0000 -14165.4084 2428.0212 0.0000 0.0000 524.5603 -11212.8269 89.0590 -11737.3872 -11211.7609 89.8401 373.1208 403.4910 28657.3037 4.4870 4.4140
TCL: Running 100000 steps at 120 kelvin.
TCL: Setting parameter langevinTemp to 120
TCL: Running for 100000 steps
ETITLE: TS BOND ANGLE DIHED IMPRP ELECT VDW BOUNDARY MISC KINETIC TOTAL TEMP POTENTIAL TOTAL3 TEMPAVG PRESSURE GPRESSURE VOLUME PRESSAVG GPRESSAVG
ENERGY: 300000 0.0000 0.0000 0.0000 0.0000 -14165.4084 2428.0212 0.0000 0.0000 524.2952 -11213.0920 89.0139 -11737.3872 -11212.2842 89.0139 358.0279 403.8286 28657.3037 358.0279 403.8286
ENERGY: 400000 0.0000 0.0000 0.0000 0.0000 -13961.7376 2346.7994 0.0000 0.0000 705.2795 -10909.6587 119.7412 -11614.9382 -10906.8440 119.8292 173.9075 200.7208 28674.0751 3.4450 3.4156
TCL: Running 100000 steps at 150 kelvin.
TCL: Setting parameter langevinTemp to 150
TCL: Running for 100000 steps
ETITLE: TS BOND ANGLE DIHED IMPRP ELECT VDW BOUNDARY MISC KINETIC TOTAL TEMP POTENTIAL TOTAL3 TEMPAVG PRESSURE GPRESSURE VOLUME PRESSAVG GPRESSAVG
ENERGY: 400000 0.0000 0.0000 0.0000 0.0000 -13961.7376 2346.7994 0.0000 0.0000 704.9285 -10910.0097 119.6816 -11614.9382 -10908.7081 119.6816 149.8271 200.8687 28674.0751 149.8271 200.8687
ENERGY: 500000 0.0000 0.0000 0.0000 0.0000 -13611.3003 2160.5670 0.0000 0.0000 893.9954 -10556.7379 151.7810 -11450.7333 -10553.3773 149.7676 -861.9090 -777.7764 29074.5530 3.8335 3.7820
TCL: Running 100000 steps at 180 kelvin.
TCL: Setting parameter langevinTemp to 180
TCL: Running for 100000 steps
ETITLE: TS BOND ANGLE DIHED IMPRP ELECT VDW BOUNDARY MISC KINETIC TOTAL TEMP POTENTIAL TOTAL3 TEMPAVG PRESSURE GPRESSURE VOLUME PRESSAVG GPRESSAVG
ENERGY: 500000 0.0000 0.0000 0.0000 0.0000 -13611.3003 2160.5670 0.0000 0.0000 893.5536 -10557.1797 151.7060 -11450.7333 -10555.1917 151.7060 -842.3105 -778.0538 29074.5530 -842.3105 -778.0538
ENERGY: 600000 0.0000 0.0000 0.0000 0.0000 -13252.7425 2134.8958 0.0000 0.0000 1043.3757 -10074.4711 177.1425 -11117.8467 -10073.1681 179.8773 300.6892 331.1848 28873.3025 3.7543 3.7423
TCL: Running 100000 steps at 210 kelvin.
TCL: Setting parameter langevinTemp to 210
TCL: Running for 100000 steps
ETITLE: TS BOND ANGLE DIHED IMPRP ELECT VDW BOUNDARY MISC KINETIC TOTAL TEMP POTENTIAL TOTAL3 TEMPAVG PRESSURE GPRESSURE VOLUME PRESSAVG GPRESSAVG
ENERGY: 600000 0.0000 0.0000 0.0000 0.0000 -13252.7425 2134.8958 0.0000 0.0000 1042.8480 -10074.9987 177.0530 -11117.8467 -10072.7778 177.0530 273.4352 330.1114 28873.3025 273.4352 330.1114
ENERGY: 700000 0.0000 0.0000 0.0000 0.0000 -12585.4944 1879.2535 0.0000 0.0000 1276.8424 -9429.3985 216.7801 -10706.2409 -9423.8416 210.0726 -209.4522 -139.2181 29073.5662 2.1111 2.2131
TCL: Running 100000 steps at 240 kelvin.
TCL: Setting parameter langevinTemp to 240
TCL: Running for 100000 steps
ETITLE: TS BOND ANGLE DIHED IMPRP ELECT VDW BOUNDARY MISC KINETIC TOTAL TEMP POTENTIAL TOTAL3 TEMPAVG PRESSURE GPRESSURE VOLUME PRESSAVG GPRESSAVG
ENERGY: 700000 0.0000 0.0000 0.0000 0.0000 -12585.4944 1879.2535 0.0000 0.0000 1276.2360 -9430.0049 216.6772 -10706.2409 -9427.5220 216.6772 -197.6986 -136.7360 29073.5662 -197.6986 -136.7360
ENERGY: 800000 0.0000 0.0000 0.0000 0.0000 -11985.1239 1783.0535 0.0000 0.0000 1427.9551 -8774.1153 242.4358 -10202.0705 -8772.6828 239.6735 614.0622 683.3122 29222.0145 4.0989 4.0885
TCL: Running 100000 steps at 270 kelvin.
TCL: Setting parameter langevinTemp to 270
TCL: Running for 100000 steps
ETITLE: TS BOND ANGLE DIHED IMPRP ELECT VDW BOUNDARY MISC KINETIC TOTAL TEMP POTENTIAL TOTAL3 TEMPAVG PRESSURE GPRESSURE VOLUME PRESSAVG GPRESSAVG
ENERGY: 800000 0.0000 0.0000 0.0000 0.0000 -11985.1239 1783.0535 0.0000 0.0000 1427.2552 -8774.8153 242.3170 -10202.0705 -8772.0076 242.3170 600.9060 681.0710 29222.0145 600.9060 681.0710
ENERGY: 900000 0.0000 0.0000 0.0000 0.0000 -11280.2253 1519.3102 0.0000 0.0000 1582.7961 -8178.1190 268.7244 -9760.9151 -8175.0846 269.9288 -504.1732 -405.5829 30210.6775 3.1830 3.1749
TCL: Running 1000000 steps at 300 kelvin.
TCL: Setting parameter langevinTemp to 300
TCL: Running for 1000000 steps
ETITLE: TS BOND ANGLE DIHED IMPRP ELECT VDW BOUNDARY MISC KINETIC TOTAL TEMP POTENTIAL TOTAL3 TEMPAVG PRESSURE GPRESSURE VOLUME PRESSAVG GPRESSAVG
ENERGY: 900000 0.0000 0.0000 0.0000 0.0000 -11280.2253 1519.3102 0.0000 0.0000 1581.9881 -8178.9269 268.5873 -9760.9151 -8176.7581 268.5873 -513.9535 -405.9684 30210.6775 -513.9535 -405.9684
ENERGY: 1100000 0.0000 0.0000 0.0000 0.0000 -10769.2170 1375.9223 0.0000 0.0000 1775.7547 -7617.5400 301.4846 -9393.2947 -7614.2789 299.8588 -765.6919 -584.3539 30966.2435 1.9484 1.9334
ENERGY: 1300000 0.0000 0.0000 0.0000 0.0000 -10929.8174 1445.2745 0.0000 0.0000 1775.3510 -7709.1920 301.4161 -9484.5429 -7705.3116 299.6721 -100.6361 25.0427 30433.4484 3.4487 3.5112
ENERGY: 1500000 0.0000 0.0000 0.0000 0.0000 -10767.4527 1362.3441 0.0000 0.0000 1784.1998 -7620.9087 302.9184 -9405.1086 -7618.5838 300.3989 -536.5695 -406.7929 30386.4519 3.1253 3.0411
ENERGY: 1700000 0.0000 0.0000 0.0000 0.0000 -10800.2768 1419.2912 0.0000 0.0000 1738.8434 -7642.1423 295.2179 -9380.9857 -7639.8525 299.8538 -332.8106 -219.6346 31292.9305 3.5991 3.5803
ENERGY: 1900000 0.0000 0.0000 0.0000 0.0000 -10827.0369 1407.1383 0.0000 0.0000 1721.2490 -7698.6496 292.2307 -9419.8985 -7696.5679 299.5047 -399.5172 -339.4461 30945.2299 3.1013 3.1687
TCL: Exiting due to exit command.
