Info: SIMULATION PARAMETERS:
Info: TIMESTEP               2
Info: NUMBER OF STEPS        0
Info: STEPS PER CYCLE        10
Info: PERIODIC CELL BASIS 1  41.123 0 0
Info: PERIODIC CELL BASIS 2  0 34.26 0
Info: PERIODIC CELL BASIS 3  0 0 31.061
Info: PERIODIC CELL CENTER   0 0 0
Info: WRAPPING WATERS AROUND PERIODIC BOUNDARIES ON OUTPUT.
Info: WRAPPING ALL CLUSTERS AROUND PERIODIC BOUNDARIES ON OUTPUT.
Info: FIRST LDB TIMESTEP     50
Info: LAST LDB TIMESTEP     -1
Info: HOM BACKGROUND SCALING 1
Info: PME BACKGROUND SCALING 1
Info: MIN ATOMS PER PATCH    40
Info: EMPTY PATCH LOAD       40 ATOMS
Info: INITIAL TEMPERATURE    300
Info: CENTER OF MASS MOVING INITIALLY? NO
Info: DIELECTRIC             1
Info: EXCLUDE                SCALED ONE-FOUR
Info: 1-4 ELECTROSTATICS SCALED BY 0.833333
Info: MODIFIED 1-4 VDW PARAMETERS WILL BE USED
Info: DCD FILENAME           mobley_2845466_equil.dcd
Info: DCD FREQUENCY          100000
Info: DCD FIRST STEP         100000
Info: DCD FILE WILL CONTAIN UNIT CELL DATA
Info: XST FILENAME           mobley_2845466_equil.xst
Info: XST FREQUENCY          100000
Info: NO VELOCITY DCD OUTPUT
Info: NO FORCE DCD OUTPUT
Info: OUTPUT FILENAME        mobley_2845466_equil
Info: BINARY OUTPUT FILES WILL BE USED
Info: RESTART FILENAME       mobley_2845466_equil.restart
Info: RESTART FREQUENCY      100000
Info: BINARY RESTART FILES WILL BE USED
Info: CUTOFF                 9
Info: PAIRLIST DISTANCE      11
Info: PAIRLIST SHRINK RATE   0.01
Info: PAIRLIST GROW RATE     0.01
Info: PAIRLIST TRIGGER       0.3
Info: PAIRLISTS PER CYCLE    2
Info: PAIRLISTS ENABLED
Info: MARGIN                 8
Info: HYDROGEN GROUP CUTOFF  2.5
Info: PATCH DIMENSION        21.5
Info: ENERGY OUTPUT STEPS    100000
Info: ENERGY EVALUATION STEPS    100000
Info: OUTPUT ENERGY PRECISION 4
Info: CROSSTERM ENERGY INCLUDED IN DIHEDRAL
Info: TIMING OUTPUT STEPS    1000000
Info: PRESSURE OUTPUT STEPS  100000
Info: FIXED ATOMS ACTIVE
Info: LANGEVIN DYNAMICS ACTIVE
Info: LANGEVIN TEMPERATURE   30
Info: LANGEVIN USING BBK INTEGRATOR
Info: LANGEVIN DAMPING COEFFICIENT IS 1 INVERSE PS
Info: LANGEVIN DYNAMICS APPLIED TO HYDROGENS
Info: LANGEVIN PISTON PRESSURE CONTROL ACTIVE
Info:        TARGET PRESSURE IS 1.01325 BAR
Info:     OSCILLATION PERIOD IS 50 FS
Info:             DECAY TIME IS 25 FS
Info:     PISTON TEMPERATURE IS 300 K
Info:       PRESSURE CONTROL IS GROUP-BASED
Info:    INITIAL STRAIN RATE IS 0 0 0
Info:       CELL FLUCTUATION IS ISOTROPIC
Info: PARTICLE MESH EWALD (PME) ACTIVE
Info: PME TOLERANCE               1e-06
Info: PME EWALD COEFFICIENT       0.348832
Info: PME INTERPOLATION ORDER     4
Info: PME GRID DIMENSIONS         44 36 32
Info: PME MAXIMUM GRID SPACING    1
Info: FULL ELECTROSTATIC EVALUATION FREQUENCY      2
Info: USING VERLET I (r-RESPA) MTS SCHEME.
Info: C1 SPLITTING OF LONG RANGE ELECTROSTATICS
Info: PLACING ATOMS IN PATCHES BY HYDROGEN GROUPS
Info: RIGID BONDS TO HYDROGEN : ALL
Info:         ERROR TOLERANCE : 1e-08
Info:          MAX ITERATIONS : 100
Info: RIGID WATER USING SETTLE ALGORITHM
Info: RANDOM NUMBER SEED     1743764310
Info: USE HYDROGEN BONDS?    NO
Info: Using AMBER format force field!
Info: AMBER PARM FILE        mobley_2845466.prmtop
Info: COORDINATE PDB         mobley_2845466.pdb
Info: Exclusions will be read from PARM file!
Info: SCNB (VDW SCALING)     2
Info: USING ARITHMETIC MEAN TO COMBINE L-J SIGMA PARAMETERS
Info: BINARY COORDINATES     mobley_2845466_min.coor
Info: SUMMARY OF PARAMETERS:
Info: 6 BONDS
Info: 5 ANGLES
Info:   5 HARMONIC
Info:   0 COSINE-BASED
Info: 3 DIHEDRAL
Info: 0 IMPROPER
Info: 0 CROSSTERM
Info: 0 VDW
Info: 21 VDW_PAIRS
Info: 0 NBTHOLE_PAIRS
Info: STRUCTURE SUMMARY:
Info: 2941 ATOMS
Info: 2943 BONDS
Info: 38 ANGLES
Info: 68 DIHEDRALS
Info: 0 IMPROPERS
Info: 0 CROSSTERMS
Info: 3028 EXCLUSIONS
Info: 22 FIXED ATOMS
Info: 2923 RIGID BONDS
Info: 4 RIGID BONDS BETWEEN FIXED ATOMS
Info: 5838 DEGREES OF FREEDOM
Info: 991 HYDROGEN GROUPS
Info: 3 ATOMS IN LARGEST HYDROGEN GROUP
Info: 991 MIGRATION GROUPS
Info: 3 ATOMS IN LARGEST MIGRATION GROUP
Info: 18 HYDROGEN GROUPS WITH ALL ATOMS FIXED
Info: TOTAL MASS = 17851.5 amu
Info: TOTAL CHARGE = 0.000300042 e
Info: MASS DENSITY = 0.677403 g/cm^3
Info: ATOM DENSITY = 0.0672059 atoms/A^3
Info: ADDED 0 IMPLICIT EXCLUSIONS
Info: NONBONDED TABLE R-SQUARED SPACING: 0.0625
Info: NONBONDED TABLE SIZE: 705 POINTS
Info: REMOVING COM VELOCITY 0.0507139 0.0298059 0.223241
TCL: Running for 100000 steps
ETITLE: TS BOND ANGLE DIHED IMPRP ELECT VDW BOUNDARY MISC KINETIC TOTAL TEMP POTENTIAL TOTAL3 TEMPAVG PRESSURE GPRESSURE VOLUME PRESSAVG GPRESSAVG
ENERGY: 0 0.0000 0.0000 0.0000 0.0000 -13544.4908 2367.0221 0.0000 0.0000 1740.9451 -9436.5236 300.1314 -11177.4687 -9436.1898 300.1314 347.1220 378.6389 43761.0347 347.1220 378.6389
ENERGY: 100000 0.0000 0.0000 0.0000 0.0000 -14104.5123 2417.2056 0.0000 0.0000 171.2262 -11516.0804 29.5187 -11687.3067 -11515.6948 30.9692 -357.6578 -316.7049 29229.1738 3.3837 3.3726
TCL: Running 100000 steps at 60 kelvin.
TCL: Setting parameter langevinTemp to 60
TCL: Running for 100000 steps
ETITLE: TS BOND ANGLE DIHED IMPRP ELECT VDW BOUNDARY MISC KINETIC TOTAL TEMP POTENTIAL TOTAL3 TEMPAVG PRESSURE GPRESSURE VOLUME PRESSAVG GPRESSAVG
ENERGY: 100000 0.0000 0.0000 0.0000 0.0000 -14104.5123 2417.2056 0.0000 0.0000 171.1414 -11516.1653 29.5040 -11687.3067 -11515.7869 29.5040 -361.5715 -316.7555 29229.1738 -361.5715 -316.7555
ENERGY: 200000 0.0000 0.0000 0.0000 0.0000 -14104.3377 2482.2365 0.0000 0.0000 346.9104 -11275.1908 59.8059 -11622.1012 -11274.7437 59.9668 620.9562 664.8638 28863.2090 3.5974 3.5952
TCL: Running 100000 steps at 90 kelvin.
TCL: Setting parameter langevinTemp to 90
TCL: Running for 100000 steps
ETITLE: TS BOND ANGLE DIHED IMPRP ELECT VDW BOUNDARY MISC KINETIC TOTAL TEMP POTENTIAL TOTAL3 TEMPAVG PRESSURE GPRESSURE VOLUME PRESSAVG GPRESSAVG
ENERGY: 200000 0.0000 0.0000 0.0000 0.0000 -14104.3377 2482.2365 0.0000 0.0000 346.7404 -11275.3608 59.7765 -11622.1012 -11274.7079 59.7765 617.1420 664.7124 28863.2090 617.1420 664.7124
ENERGY: 300000 0.0000 0.0000 0.0000 0.0000 -13794.4008 2275.4149 0.0000 0.0000 509.7871 -11009.1988 87.8851 -11518.9858 -11008.2795 89.8528 -681.1662 -649.3258 28827.5956 3.3120 3.2985
TCL: Running 100000 steps at 120 kelvin.
TCL: Setting parameter langevinTemp to 120
TCL: Running for 100000 steps
ETITLE: TS BOND ANGLE DIHED IMPRP ELECT VDW BOUNDARY MISC KINETIC TOTAL TEMP POTENTIAL TOTAL3 TEMPAVG PRESSURE GPRESSURE VOLUME PRESSAVG GPRESSAVG
ENERGY: 300000 0.0000 0.0000 0.0000 0.0000 -13794.4008 2275.4149 0.0000 0.0000 509.5308 -11009.4550 87.8409 -11518.9858 -11008.4807 87.8409 -701.4692 -649.8320 28827.5956 -701.4692 -649.8320
ENERGY: 400000 0.0000 0.0000 0.0000 0.0000 -13627.5868 2270.0398 0.0000 0.0000 713.5285 -10644.0185 123.0092 -11357.5470 -10642.6335 120.2365 53.8229 97.2655 28716.2720 4.9154 4.7055
TCL: Running 100000 steps at 150 kelvin.
TCL: Setting parameter langevinTemp to 150
TCL: Running for 100000 steps
ETITLE: TS BOND ANGLE DIHED IMPRP ELECT VDW BOUNDARY MISC KINETIC TOTAL TEMP POTENTIAL TOTAL3 TEMPAVG PRESSURE GPRESSURE VOLUME PRESSAVG GPRESSAVG
ENERGY: 400000 0.0000 0.0000 0.0000 0.0000 -13627.5868 2270.0398 0.0000 0.0000 713.1813 -10644.3658 122.9493 -11357.5470 -10643.0407 122.9493 44.2777 96.6489 28716.2720 44.2777 96.6489
ENERGY: 500000 0.0000 0.0000 0.0000 0.0000 -13434.3835 2198.7771 0.0000 0.0000 878.6540 -10356.9523 151.4761 -11235.6063 -10355.8785 150.2644 -239.3496 -176.0849 28881.7118 3.9728 4.0775
TCL: Running 100000 steps at 180 kelvin.
TCL: Setting parameter langevinTemp to 180
TCL: Running for 100000 steps
ETITLE: TS BOND ANGLE DIHED IMPRP ELECT VDW BOUNDARY MISC KINETIC TOTAL TEMP POTENTIAL TOTAL3 TEMPAVG PRESSURE GPRESSURE VOLUME PRESSAVG GPRESSAVG
ENERGY: 500000 0.0000 0.0000 0.0000 0.0000 -13434.3835 2198.7771 0.0000 0.0000 878.2237 -10357.3826 151.4019 -11235.6063 -10355.6139 151.4019 -233.5720 -175.9111 28881.7118 -233.5720 -175.9111
ENERGY: 600000 0.0000 0.0000 0.0000 0.0000 -12932.7213 1997.2711 0.0000 0.0000 1043.8873 -9891.5628 179.9616 -10935.4501 -9888.8474 180.0221 -561.3732 -476.8658 28664.3803 2.1765 2.2148
TCL: Running 100000 steps at 210 kelvin.
TCL: Setting parameter langevinTemp to 210
TCL: Running for 100000 steps
ETITLE: TS BOND ANGLE DIHED IMPRP ELECT VDW BOUNDARY MISC KINETIC TOTAL TEMP POTENTIAL TOTAL3 TEMPAVG PRESSURE GPRESSURE VOLUME PRESSAVG GPRESSAVG
ENERGY: 600000 0.0000 0.0000 0.0000 0.0000 -12932.7213 1997.2711 0.0000 0.0000 1043.3506 -9892.0995 179.8691 -10935.4501 -9889.8598 179.8691 -552.0281 -476.6686 28664.3803 -552.0281 -476.6686
ENERGY: 700000 0.0000 0.0000 0.0000 0.0000 -12352.0730 1857.7304 0.0000 0.0000 1228.9499 -9265.3927 211.8656 -10494.3426 -9262.9628 210.3031 -278.3633 -167.6967 28931.9484 4.0436 3.9260
TCL: Running 100000 steps at 240 kelvin.
TCL: Setting parameter langevinTemp to 240
TCL: Running for 100000 steps
ETITLE: TS BOND ANGLE DIHED IMPRP ELECT VDW BOUNDARY MISC KINETIC TOTAL TEMP POTENTIAL TOTAL3 TEMPAVG PRESSURE GPRESSURE VOLUME PRESSAVG GPRESSAVG
ENERGY: 700000 0.0000 0.0000 0.0000 0.0000 -12352.0730 1857.7304 0.0000 0.0000 1228.3127 -9266.0299 211.7558 -10494.3426 -9263.7060 211.7558 -249.4746 -166.9141 28931.9484 -249.4746 -166.9141
ENERGY: 800000 0.0000 0.0000 0.0000 0.0000 -11777.0725 1696.7897 0.0000 0.0000 1384.2522 -8696.0306 238.6391 -10080.2829 -8693.4639 239.9630 -102.5470 -36.7637 29119.1196 5.0192 4.9304
TCL: Running 100000 steps at 270 kelvin.
TCL: Setting parameter langevinTemp to 270
TCL: Running for 100000 steps
ETITLE: TS BOND ANGLE DIHED IMPRP ELECT VDW BOUNDARY MISC KINETIC TOTAL TEMP POTENTIAL TOTAL3 TEMPAVG PRESSURE GPRESSURE VOLUME PRESSAVG GPRESSAVG
ENERGY: 800000 0.0000 0.0000 0.0000 0.0000 -11777.0725 1696.7897 0.0000 0.0000 1383.5739 -8696.7090 238.5221 -10080.2829 -8693.7552 238.5221 -110.2437 -36.7730 29119.1196 -110.2437 -36.7730
ENERGY: 900000 0.0000 0.0000 0.0000 0.0000 -11302.2716 1631.6258 0.0000 0.0000 1573.8675 -8096.7782 271.3279 -9670.6457 -8094.0938 269.5332 595.1623 641.6760 29575.7141 3.4002 3.2770
TCL: Running 1000000 steps at 300 kelvin.
TCL: Setting parameter langevinTemp to 300
TCL: Running for 1000000 steps
ETITLE: TS BOND ANGLE DIHED IMPRP ELECT VDW BOUNDARY MISC KINETIC TOTAL TEMP POTENTIAL TOTAL3 TEMPAVG PRESSURE GPRESSURE VOLUME PRESSAVG GPRESSAVG
ENERGY: 900000 0.0000 0.0000 0.0000 0.0000 -11302.2716 1631.6258 0.0000 0.0000 1573.0810 -8097.5647 271.1923 -9670.6457 -8095.2348 271.1923 567.9681 641.0046 29575.7141 567.9681 641.0046
ENERGY: 1100000 0.0000 0.0000 0.0000 0.0000 -10565.8898 1411.4572 0.0000 0.0000 1738.8951 -7415.5375 299.7779 -9154.4326 -7412.2204 300.8000 -183.4888 -76.7249 31068.0229 3.2067 3.1149
ENERGY: 1300000 0.0000 0.0000 0.0000 0.0000 -10670.1772 1459.7065 0.0000 0.0000 1757.9821 -7452.4886 303.0685 -9210.4707 -7448.9532 299.7717 339.0369 424.8430 30439.9421 2.5293 2.4152
ENERGY: 1500000 0.0000 0.0000 0.0000 0.0000 -10856.5767 1541.0876 0.0000 0.0000 1794.7947 -7520.6944 309.4148 -9315.4892 -7516.9096 300.3406 676.9309 763.3883 30397.5766 2.7996 2.7361
ENERGY: 1700000 0.0000 0.0000 0.0000 0.0000 -10442.2411 1277.5240 0.0000 0.0000 1765.8753 -7398.8418 304.4292 -9164.7171 -7392.9678 300.3897 -815.7418 -724.6559 30672.9997 2.5793 2.5422
ENERGY: 1900000 0.0000 0.0000 0.0000 0.0000 -10698.7879 1459.8658 0.0000 0.0000 1741.0573 -7497.8648 300.1507 -9238.9221 -7493.5462 300.6377 373.0274 438.3056 30051.5669 3.5148 3.4936
TCL: Exiting due to exit command.
