Info: SIMULATION PARAMETERS:
Info: TIMESTEP               2
Info: NUMBER OF STEPS        0
Info: STEPS PER CYCLE        10
Info: PERIODIC CELL BASIS 1  37.435 0 0
Info: PERIODIC CELL BASIS 2  0 36.611 0
Info: PERIODIC CELL BASIS 3  0 0 31.855
Info: PERIODIC CELL CENTER   0 0 0
Info: WRAPPING WATERS AROUND PERIODIC BOUNDARIES ON OUTPUT.
Info: WRAPPING ALL CLUSTERS AROUND PERIODIC BOUNDARIES ON OUTPUT.
Info: FIRST LDB TIMESTEP     50
Info: LAST LDB TIMESTEP     -1
Info: HOM BACKGROUND SCALING 1
Info: PME BACKGROUND SCALING 1
Info: MIN ATOMS PER PATCH    40
Info: EMPTY PATCH LOAD       40 ATOMS
Info: INITIAL TEMPERATURE    300
Info: CENTER OF MASS MOVING INITIALLY? NO
Info: DIELECTRIC             1
Info: EXCLUDE                SCALED ONE-FOUR
Info: 1-4 ELECTROSTATICS SCALED BY 0.833333
Info: MODIFIED 1-4 VDW PARAMETERS WILL BE USED
Info: DCD FILENAME           mobley_3452749_equil.dcd
Info: DCD FREQUENCY          100000
Info: DCD FIRST STEP         100000
Info: DCD FILE WILL CONTAIN UNIT CELL DATA
Info: XST FILENAME           mobley_3452749_equil.xst
Info: XST FREQUENCY          100000
Info: NO VELOCITY DCD OUTPUT
Info: NO FORCE DCD OUTPUT
Info: OUTPUT FILENAME        mobley_3452749_equil
Info: BINARY OUTPUT FILES WILL BE USED
Info: RESTART FILENAME       mobley_3452749_equil.restart
Info: RESTART FREQUENCY      100000
Info: BINARY RESTART FILES WILL BE USED
Info: CUTOFF                 9
Info: PAIRLIST DISTANCE      11
Info: PAIRLIST SHRINK RATE   0.01
Info: PAIRLIST GROW RATE     0.01
Info: PAIRLIST TRIGGER       0.3
Info: PAIRLISTS PER CYCLE    2
Info: PAIRLISTS ENABLED
Info: MARGIN                 8
Info: HYDROGEN GROUP CUTOFF  2.5
Info: PATCH DIMENSION        21.5
Info: ENERGY OUTPUT STEPS    100000
Info: ENERGY EVALUATION STEPS    100000
Info: OUTPUT ENERGY PRECISION 4
Info: CROSSTERM ENERGY INCLUDED IN DIHEDRAL
Info: TIMING OUTPUT STEPS    1000000
Info: PRESSURE OUTPUT STEPS  100000
Info: FIXED ATOMS ACTIVE
Info: LANGEVIN DYNAMICS ACTIVE
Info: LANGEVIN TEMPERATURE   30
Info: LANGEVIN USING BBK INTEGRATOR
Info: LANGEVIN DAMPING COEFFICIENT IS 1 INVERSE PS
Info: LANGEVIN DYNAMICS APPLIED TO HYDROGENS
Info: LANGEVIN PISTON PRESSURE CONTROL ACTIVE
Info:        TARGET PRESSURE IS 1.01325 BAR
Info:     OSCILLATION PERIOD IS 50 FS
Info:             DECAY TIME IS 25 FS
Info:     PISTON TEMPERATURE IS 300 K
Info:       PRESSURE CONTROL IS GROUP-BASED
Info:    INITIAL STRAIN RATE IS 0 0 0
Info:       CELL FLUCTUATION IS ISOTROPIC
Info: PARTICLE MESH EWALD (PME) ACTIVE
Info: PME TOLERANCE               1e-06
Info: PME EWALD COEFFICIENT       0.348832
Info: PME INTERPOLATION ORDER     4
Info: PME GRID DIMENSIONS         40 40 32
Info: PME MAXIMUM GRID SPACING    1
Info: FULL ELECTROSTATIC EVALUATION FREQUENCY      2
Info: USING VERLET I (r-RESPA) MTS SCHEME.
Info: C1 SPLITTING OF LONG RANGE ELECTROSTATICS
Info: PLACING ATOMS IN PATCHES BY HYDROGEN GROUPS
Info: RIGID BONDS TO HYDROGEN : ALL
Info:         ERROR TOLERANCE : 1e-08
Info:          MAX ITERATIONS : 100
Info: RIGID WATER USING SETTLE ALGORITHM
Info: RANDOM NUMBER SEED     1743764300
Info: USE HYDROGEN BONDS?    NO
Info: Using AMBER format force field!
Info: AMBER PARM FILE        mobley_3452749.prmtop
Info: COORDINATE PDB         mobley_3452749.pdb
Info: Exclusions will be read from PARM file!
Info: SCNB (VDW SCALING)     2
Info: USING ARITHMETIC MEAN TO COMBINE L-J SIGMA PARAMETERS
Info: BINARY COORDINATES     mobley_3452749_min.coor
Info: SUMMARY OF PARAMETERS:
Info: 6 BONDS
Info: 5 ANGLES
Info:   5 HARMONIC
Info:   0 COSINE-BASED
Info: 3 DIHEDRAL
Info: 0 IMPROPER
Info: 0 CROSSTERM
Info: 0 VDW
Info: 21 VDW_PAIRS
Info: 0 NBTHOLE_PAIRS
Info: STRUCTURE SUMMARY:
Info: 2991 ATOMS
Info: 2991 BONDS
Info: 36 ANGLES
Info: 48 DIHEDRALS
Info: 0 IMPROPERS
Info: 0 CROSSTERMS
Info: 3066 EXCLUSIONS
Info: 21 FIXED ATOMS
Info: 2982 RIGID BONDS
Info: 12 RIGID BONDS BETWEEN FIXED ATOMS
Info: 5940 DEGREES OF FREEDOM
Info: 999 HYDROGEN GROUPS
Info: 4 ATOMS IN LARGEST HYDROGEN GROUP
Info: 999 MIGRATION GROUPS
Info: 4 ATOMS IN LARGEST MIGRATION GROUP
Info: 9 HYDROGEN GROUPS WITH ALL ATOMS FIXED
Info: TOTAL MASS = 17956 amu
Info: TOTAL CHARGE = 0.00010002 e
Info: MASS DENSITY = 0.682971 g/cm^3
Info: ATOM DENSITY = 0.0685093 atoms/A^3
Info: ADDED 0 IMPLICIT EXCLUSIONS
Info: NONBONDED TABLE R-SQUARED SPACING: 0.0625
Info: NONBONDED TABLE SIZE: 705 POINTS
Info: REMOVING COM VELOCITY 0.0191772 0.00635113 0.0592635
TCL: Running for 100000 steps
ETITLE: TS BOND ANGLE DIHED IMPRP ELECT VDW BOUNDARY MISC KINETIC TOTAL TEMP POTENTIAL TOTAL3 TEMPAVG PRESSURE GPRESSURE VOLUME PRESSAVG GPRESSAVG
ENERGY: 0 0.0000 0.0000 0.0000 0.0000 -13850.0692 2432.8602 0.0000 0.0000 1787.7849 -9629.4242 302.9139 -11417.2091 -9629.0795 302.9139 334.6961 374.0361 43658.3219 334.6961 374.0361
ENERGY: 100000 0.0000 0.0000 0.0000 0.0000 -14331.8063 2496.7523 0.0000 0.0000 178.4291 -11656.6248 30.2322 -11835.0539 -11656.3534 30.9475 -111.8407 -86.5572 30036.2476 4.2158 4.2159
TCL: Running 100000 steps at 60 kelvin.
TCL: Setting parameter langevinTemp to 60
TCL: Running for 100000 steps
ETITLE: TS BOND ANGLE DIHED IMPRP ELECT VDW BOUNDARY MISC KINETIC TOTAL TEMP POTENTIAL TOTAL3 TEMPAVG PRESSURE GPRESSURE VOLUME PRESSAVG GPRESSAVG
ENERGY: 100000 0.0000 0.0000 0.0000 0.0000 -14331.8063 2496.7523 0.0000 0.0000 178.3419 -11656.7120 30.2174 -11835.0539 -11656.3727 30.2174 -135.7079 -86.9573 30036.2476 -135.7079 -86.9573
ENERGY: 200000 0.0000 0.0000 0.0000 0.0000 -14187.0536 2419.4354 0.0000 0.0000 343.9971 -11423.6211 58.2853 -11767.6183 -11423.0889 59.9321 -431.3804 -321.6059 29782.0333 2.5289 2.4984
TCL: Running 100000 steps at 90 kelvin.
TCL: Setting parameter langevinTemp to 90
TCL: Running for 100000 steps
ETITLE: TS BOND ANGLE DIHED IMPRP ELECT VDW BOUNDARY MISC KINETIC TOTAL TEMP POTENTIAL TOTAL3 TEMPAVG PRESSURE GPRESSURE VOLUME PRESSAVG GPRESSAVG
ENERGY: 200000 0.0000 0.0000 0.0000 0.0000 -14187.0536 2419.4354 0.0000 0.0000 343.8202 -11423.7981 58.2553 -11767.6183 -11423.0147 58.2553 -390.6217 -322.3170 29782.0333 -390.6217 -322.3170
ENERGY: 300000 0.0000 0.0000 0.0000 0.0000 -14155.5955 2466.0070 0.0000 0.0000 545.7852 -11143.8033 92.4753 -11689.5884 -11143.0715 89.9470 366.1601 403.9124 29384.5779 5.0334 5.0554
TCL: Running 100000 steps at 120 kelvin.
TCL: Setting parameter langevinTemp to 120
TCL: Running for 100000 steps
ETITLE: TS BOND ANGLE DIHED IMPRP ELECT VDW BOUNDARY MISC KINETIC TOTAL TEMP POTENTIAL TOTAL3 TEMPAVG PRESSURE GPRESSURE VOLUME PRESSAVG GPRESSAVG
ENERGY: 300000 0.0000 0.0000 0.0000 0.0000 -14155.5955 2466.0070 0.0000 0.0000 545.5173 -11144.0711 92.4299 -11689.5884 -11143.2269 92.4299 359.5343 403.6524 29384.5779 359.5343 403.6524
ENERGY: 400000 0.0000 0.0000 0.0000 0.0000 -13878.6226 2319.2137 0.0000 0.0000 699.6056 -10859.8033 118.5379 -11559.4089 -10858.3361 119.8406 -456.8140 -374.1037 29624.7779 3.3079 3.2523
TCL: Running 100000 steps at 150 kelvin.
TCL: Setting parameter langevinTemp to 150
TCL: Running for 100000 steps
ETITLE: TS BOND ANGLE DIHED IMPRP ELECT VDW BOUNDARY MISC KINETIC TOTAL TEMP POTENTIAL TOTAL3 TEMPAVG PRESSURE GPRESSURE VOLUME PRESSAVG GPRESSAVG
ENERGY: 400000 0.0000 0.0000 0.0000 0.0000 -13878.6226 2319.2137 0.0000 0.0000 699.2573 -10860.1516 118.4789 -11559.4089 -10858.8281 118.4789 -423.7805 -374.0557 29624.7779 -423.7805 -374.0557
ENERGY: 500000 0.0000 0.0000 0.0000 0.0000 -13702.7038 2311.1894 0.0000 0.0000 878.9783 -10512.5361 148.9300 -11391.5144 -10510.4442 149.8081 351.0700 403.0823 29306.9558 4.2047 4.0763
TCL: Running 100000 steps at 180 kelvin.
TCL: Setting parameter langevinTemp to 180
TCL: Running for 100000 steps
ETITLE: TS BOND ANGLE DIHED IMPRP ELECT VDW BOUNDARY MISC KINETIC TOTAL TEMP POTENTIAL TOTAL3 TEMPAVG PRESSURE GPRESSURE VOLUME PRESSAVG GPRESSAVG
ENERGY: 500000 0.0000 0.0000 0.0000 0.0000 -13702.7038 2311.1894 0.0000 0.0000 878.5376 -10512.9768 148.8553 -11391.5144 -10511.0742 148.8553 342.8931 402.9328 29306.9558 342.8931 402.9328
ENERGY: 600000 0.0000 0.0000 0.0000 0.0000 -13300.7093 2193.8396 0.0000 0.0000 1056.5694 -10050.3004 179.0202 -11106.8697 -10047.8282 180.0884 436.5569 531.2330 29206.3971 2.7282 2.7751
TCL: Running 100000 steps at 210 kelvin.
TCL: Setting parameter langevinTemp to 210
TCL: Running for 100000 steps
ETITLE: TS BOND ANGLE DIHED IMPRP ELECT VDW BOUNDARY MISC KINETIC TOTAL TEMP POTENTIAL TOTAL3 TEMPAVG PRESSURE GPRESSURE VOLUME PRESSAVG GPRESSAVG
ENERGY: 600000 0.0000 0.0000 0.0000 0.0000 -13300.7093 2193.8396 0.0000 0.0000 1056.0364 -10050.8333 178.9299 -11106.8697 -10048.9408 178.9299 484.8239 532.1382 29206.3971 484.8239 532.1382
ENERGY: 700000 0.0000 0.0000 0.0000 0.0000 -12619.4848 1919.8639 0.0000 0.0000 1213.5983 -9486.0226 205.6264 -10699.6209 -9484.2572 210.1130 -55.7215 -19.3549 29207.5447 2.0558 1.9915
TCL: Running 100000 steps at 240 kelvin.
TCL: Setting parameter langevinTemp to 240
TCL: Running for 100000 steps
ETITLE: TS BOND ANGLE DIHED IMPRP ELECT VDW BOUNDARY MISC KINETIC TOTAL TEMP POTENTIAL TOTAL3 TEMPAVG PRESSURE GPRESSURE VOLUME PRESSAVG GPRESSAVG
ENERGY: 700000 0.0000 0.0000 0.0000 0.0000 -12619.4848 1919.8639 0.0000 0.0000 1213.0024 -9486.6185 205.5254 -10699.6209 -9484.2711 205.5254 -97.3919 -19.6686 29207.5447 -97.3919 -19.6686
ENERGY: 800000 0.0000 0.0000 0.0000 0.0000 -11894.2730 1717.8807 0.0000 0.0000 1437.1277 -8739.2646 243.5002 -10176.3923 -8736.8971 239.6406 -126.8583 -10.2917 29539.6147 3.2817 3.3622
TCL: Running 100000 steps at 270 kelvin.
TCL: Setting parameter langevinTemp to 270
TCL: Running for 100000 steps
ETITLE: TS BOND ANGLE DIHED IMPRP ELECT VDW BOUNDARY MISC KINETIC TOTAL TEMP POTENTIAL TOTAL3 TEMPAVG PRESSURE GPRESSURE VOLUME PRESSAVG GPRESSAVG
ENERGY: 800000 0.0000 0.0000 0.0000 0.0000 -11894.2730 1717.8807 0.0000 0.0000 1436.4081 -8739.9842 243.3783 -10176.3923 -8737.5724 243.3783 -80.0459 -10.9581 29539.6147 -80.0459 -10.9581
ENERGY: 900000 0.0000 0.0000 0.0000 0.0000 -11312.8401 1603.7373 0.0000 0.0000 1588.0059 -8121.0968 269.0643 -9709.1027 -8115.8280 270.1405 550.6777 627.3041 29796.4423 3.0567 3.1128
TCL: Running 1000000 steps at 300 kelvin.
TCL: Setting parameter langevinTemp to 300
TCL: Running for 1000000 steps
ETITLE: TS BOND ANGLE DIHED IMPRP ELECT VDW BOUNDARY MISC KINETIC TOTAL TEMP POTENTIAL TOTAL3 TEMPAVG PRESSURE GPRESSURE VOLUME PRESSAVG GPRESSAVG
ENERGY: 900000 0.0000 0.0000 0.0000 0.0000 -11312.8401 1603.7373 0.0000 0.0000 1587.2599 -8121.8428 268.9379 -9709.1027 -8119.5417 268.9379 542.9938 628.8781 29796.4423 542.9938 628.8781
ENERGY: 1100000 0.0000 0.0000 0.0000 0.0000 -10831.8149 1423.5156 0.0000 0.0000 1742.9732 -7665.3262 295.3212 -9408.2993 -7660.3294 300.2237 -377.1920 -289.3735 30800.2782 2.7054 2.6094
ENERGY: 1300000 0.0000 0.0000 0.0000 0.0000 -10988.0484 1557.8594 0.0000 0.0000 1800.3266 -7629.8624 305.0389 -9430.1890 -7626.4277 300.3760 723.8792 839.5539 30657.3579 3.0539 3.1450
ENERGY: 1500000 0.0000 0.0000 0.0000 0.0000 -10821.4558 1403.8016 0.0000 0.0000 1780.9963 -7636.6579 301.7637 -9417.6542 -7633.5414 300.1367 -739.3593 -659.2539 31328.0872 3.5820 3.4502
ENERGY: 1700000 0.0000 0.0000 0.0000 0.0000 -10897.4995 1568.0398 0.0000 0.0000 1747.4925 -7581.9672 296.0869 -9329.4597 -7579.6781 300.8854 1201.2979 1221.0151 30430.6741 4.1545 3.9152
ENERGY: 1900000 0.0000 0.0000 0.0000 0.0000 -10687.2903 1319.7389 0.0000 0.0000 1805.4433 -7562.1081 305.9059 -9367.5514 -7558.4537 299.7581 -1041.0413 -982.6108 31080.2826 3.7555 3.9082
TCL: Exiting due to exit command.
