Info: SIMULATION PARAMETERS:
Info: TIMESTEP               2
Info: NUMBER OF STEPS        0
Info: STEPS PER CYCLE        10
Info: PERIODIC CELL BASIS 1  37.38 0 0
Info: PERIODIC CELL BASIS 2  0 35.411 0
Info: PERIODIC CELL BASIS 3  0 0 33.876
Info: PERIODIC CELL CENTER   0 0 0
Info: WRAPPING WATERS AROUND PERIODIC BOUNDARIES ON OUTPUT.
Info: WRAPPING ALL CLUSTERS AROUND PERIODIC BOUNDARIES ON OUTPUT.
Info: FIRST LDB TIMESTEP     50
Info: LAST LDB TIMESTEP     -1
Info: HOM BACKGROUND SCALING 1
Info: PME BACKGROUND SCALING 1
Info: MIN ATOMS PER PATCH    40
Info: EMPTY PATCH LOAD       40 ATOMS
Info: INITIAL TEMPERATURE    300
Info: CENTER OF MASS MOVING INITIALLY? NO
Info: DIELECTRIC             1
Info: EXCLUDE                SCALED ONE-FOUR
Info: 1-4 ELECTROSTATICS SCALED BY 0.833333
Info: MODIFIED 1-4 VDW PARAMETERS WILL BE USED
Info: DCD FILENAME           mobley_7794077_equil.dcd
Info: DCD FREQUENCY          100000
Info: DCD FIRST STEP         100000
Info: DCD FILE WILL CONTAIN UNIT CELL DATA
Info: XST FILENAME           mobley_7794077_equil.xst
Info: XST FREQUENCY          100000
Info: NO VELOCITY DCD OUTPUT
Info: NO FORCE DCD OUTPUT
Info: OUTPUT FILENAME        mobley_7794077_equil
Info: BINARY OUTPUT FILES WILL BE USED
Info: RESTART FILENAME       mobley_7794077_equil.restart
Info: RESTART FREQUENCY      100000
Info: BINARY RESTART FILES WILL BE USED
Info: CUTOFF                 9
Info: PAIRLIST DISTANCE      11
Info: PAIRLIST SHRINK RATE   0.01
Info: PAIRLIST GROW RATE     0.01
Info: PAIRLIST TRIGGER       0.3
Info: PAIRLISTS PER CYCLE    2
Info: PAIRLISTS ENABLED
Info: MARGIN                 8
Info: HYDROGEN GROUP CUTOFF  2.5
Info: PATCH DIMENSION        21.5
Info: ENERGY OUTPUT STEPS    100000
Info: ENERGY EVALUATION STEPS    100000
Info: OUTPUT ENERGY PRECISION 4
Info: CROSSTERM ENERGY INCLUDED IN DIHEDRAL
Info: TIMING OUTPUT STEPS    1000000
Info: PRESSURE OUTPUT STEPS  100000
Info: FIXED ATOMS ACTIVE
Info: LANGEVIN DYNAMICS ACTIVE
Info: LANGEVIN TEMPERATURE   30
Info: LANGEVIN USING BBK INTEGRATOR
Info: LANGEVIN DAMPING COEFFICIENT IS 1 INVERSE PS
Info: LANGEVIN DYNAMICS APPLIED TO HYDROGENS
Info: LANGEVIN PISTON PRESSURE CONTROL ACTIVE
Info:        TARGET PRESSURE IS 1.01325 BAR
Info:     OSCILLATION PERIOD IS 50 FS
Info:             DECAY TIME IS 25 FS
Info:     PISTON TEMPERATURE IS 300 K
Info:       PRESSURE CONTROL IS GROUP-BASED
Info:    INITIAL STRAIN RATE IS 0 0 0
Info:       CELL FLUCTUATION IS ISOTROPIC
Info: PARTICLE MESH EWALD (PME) ACTIVE
Info: PME TOLERANCE               1e-06
Info: PME EWALD COEFFICIENT       0.348832
Info: PME INTERPOLATION ORDER     4
Info: PME GRID DIMENSIONS         40 36 36
Info: PME MAXIMUM GRID SPACING    1
Info: FULL ELECTROSTATIC EVALUATION FREQUENCY      2
Info: USING VERLET I (r-RESPA) MTS SCHEME.
Info: C1 SPLITTING OF LONG RANGE ELECTROSTATICS
Info: PLACING ATOMS IN PATCHES BY HYDROGEN GROUPS
Info: RIGID BONDS TO HYDROGEN : ALL
Info:         ERROR TOLERANCE : 1e-08
Info:          MAX ITERATIONS : 100
Info: RIGID WATER USING SETTLE ALGORITHM
Info: RANDOM NUMBER SEED     1743738938
Info: USE HYDROGEN BONDS?    NO
Info: Using AMBER format force field!
Info: AMBER PARM FILE        mobley_7794077.prmtop
Info: COORDINATE PDB         mobley_7794077.pdb
Info: Exclusions will be read from PARM file!
Info: SCNB (VDW SCALING)     2
Info: USING ARITHMETIC MEAN TO COMBINE L-J SIGMA PARAMETERS
Info: BINARY COORDINATES     mobley_7794077_min.coor
Info: SUMMARY OF PARAMETERS:
Info: 11 BONDS
Info: 16 ANGLES
Info:   16 HARMONIC
Info:   0 COSINE-BASED
Info: 8 DIHEDRAL
Info: 0 IMPROPER
Info: 0 CROSSTERM
Info: 0 VDW
Info: 45 VDW_PAIRS
Info: 0 NBTHOLE_PAIRS
Info: STRUCTURE SUMMARY:
Info: 2991 ATOMS
Info: 2991 BONDS
Info: 24 ANGLES
Info: 39 DIHEDRALS
Info: 0 IMPROPERS
Info: 0 CROSSTERMS
Info: 3042 EXCLUSIONS
Info: 15 FIXED ATOMS
Info: 2979 RIGID BONDS
Info: 3 RIGID BONDS BETWEEN FIXED ATOMS
Info: 5952 DEGREES OF FREEDOM
Info: 1004 HYDROGEN GROUPS
Info: 3 ATOMS IN LARGEST HYDROGEN GROUP
Info: 1004 MIGRATION GROUPS
Info: 3 ATOMS IN LARGEST MIGRATION GROUP
Info: 12 HYDROGEN GROUPS WITH ALL ATOMS FIXED
Info: TOTAL MASS = 18052 amu
Info: TOTAL CHARGE = 9.98527e-05 e
Info: MASS DENSITY = 0.66852 g/cm^3
Info: ATOM DENSITY = 0.0667032 atoms/A^3
Info: ADDED 0 IMPLICIT EXCLUSIONS
Info: NONBONDED TABLE R-SQUARED SPACING: 0.0625
Info: NONBONDED TABLE SIZE: 705 POINTS
Info: REMOVING COM VELOCITY -0.0164756 0.0058933 0.0933734
TCL: Running for 100000 steps
ETITLE: TS BOND ANGLE DIHED IMPRP ELECT VDW BOUNDARY MISC KINETIC TOTAL TEMP POTENTIAL TOTAL3 TEMPAVG PRESSURE GPRESSURE VOLUME PRESSAVG GPRESSAVG
ENERGY: 0 0.0000 0.0000 0.0000 0.0000 -14012.6276 2412.6371 0.0000 0.0000 1836.6465 -9763.3440 310.5654 -11599.9906 -9762.9591 310.5654 377.0382 412.5605 44840.4139 377.0382 412.5605
ENERGY: 100000 0.0000 0.0000 0.0000 0.0000 -14645.3827 2508.1081 0.0000 0.0000 175.8949 -11961.3796 29.7427 -12137.2745 -11960.8918 30.9304 -78.8488 -26.2403 29673.9284 3.9331 3.9436
TCL: Running 100000 steps at 60 kelvin.
TCL: Setting parameter langevinTemp to 60
TCL: Running for 100000 steps
ETITLE: TS BOND ANGLE DIHED IMPRP ELECT VDW BOUNDARY MISC KINETIC TOTAL TEMP POTENTIAL TOTAL3 TEMPAVG PRESSURE GPRESSURE VOLUME PRESSAVG GPRESSAVG
ENERGY: 100000 0.0000 0.0000 0.0000 0.0000 -14645.3827 2508.1081 0.0000 0.0000 175.8065 -11961.4680 29.7278 -12137.2745 -11961.0879 29.7278 -79.1766 -26.0957 29673.9284 -79.1766 -26.0957
ENERGY: 200000 0.0000 0.0000 0.0000 0.0000 -14293.9756 2250.2443 0.0000 0.0000 360.0632 -11683.6680 60.8844 -12043.7312 -11682.0854 59.9563 -1610.0811 -1565.3486 29416.3021 4.2023 4.1847
TCL: Running 100000 steps at 90 kelvin.
TCL: Setting parameter langevinTemp to 90
TCL: Running for 100000 steps
ETITLE: TS BOND ANGLE DIHED IMPRP ELECT VDW BOUNDARY MISC KINETIC TOTAL TEMP POTENTIAL TOTAL3 TEMPAVG PRESSURE GPRESSURE VOLUME PRESSAVG GPRESSAVG
ENERGY: 200000 0.0000 0.0000 0.0000 0.0000 -14293.9756 2250.2443 0.0000 0.0000 359.8894 -11683.8418 60.8550 -12043.7312 -11683.0724 60.8550 -1619.3277 -1565.1801 29416.3021 -1619.3277 -1565.1801
ENERGY: 300000 0.0000 0.0000 0.0000 0.0000 -14383.5493 2419.1280 0.0000 0.0000 539.0802 -11425.3411 91.1551 -11964.4213 -11424.0817 89.8704 87.7837 153.0884 29036.9518 3.3630 3.4012
TCL: Running 100000 steps at 120 kelvin.
TCL: Setting parameter langevinTemp to 120
TCL: Running for 100000 steps
ETITLE: TS BOND ANGLE DIHED IMPRP ELECT VDW BOUNDARY MISC KINETIC TOTAL TEMP POTENTIAL TOTAL3 TEMPAVG PRESSURE GPRESSURE VOLUME PRESSAVG GPRESSAVG
ENERGY: 300000 0.0000 0.0000 0.0000 0.0000 -14383.5493 2419.1280 0.0000 0.0000 538.8249 -11425.5964 91.1119 -11964.4213 -11424.5372 91.1119 93.0747 153.1951 29036.9518 93.0747 153.1951
ENERGY: 400000 0.0000 0.0000 0.0000 0.0000 -14088.2860 2260.0619 0.0000 0.0000 713.2547 -11114.9694 120.6069 -11828.2241 -11112.6678 120.0236 -772.6750 -695.8342 29235.7156 3.6125 3.6338
TCL: Running 100000 steps at 150 kelvin.
TCL: Setting parameter langevinTemp to 150
TCL: Running for 100000 steps
ETITLE: TS BOND ANGLE DIHED IMPRP ELECT VDW BOUNDARY MISC KINETIC TOTAL TEMP POTENTIAL TOTAL3 TEMPAVG PRESSURE GPRESSURE VOLUME PRESSAVG GPRESSAVG
ENERGY: 400000 0.0000 0.0000 0.0000 0.0000 -14088.2860 2260.0619 0.0000 0.0000 712.8841 -11115.3399 120.5442 -11828.2241 -11113.6337 120.5442 -760.7098 -695.4696 29235.7156 -760.7098 -695.4696
ENERGY: 500000 0.0000 0.0000 0.0000 0.0000 -13827.7201 2164.4777 0.0000 0.0000 913.3146 -10749.9277 154.4358 -11663.2423 -10746.9742 150.0340 -996.1883 -930.1023 29608.4566 3.3041 3.2895
TCL: Running 100000 steps at 180 kelvin.
TCL: Setting parameter langevinTemp to 180
TCL: Running for 100000 steps
ETITLE: TS BOND ANGLE DIHED IMPRP ELECT VDW BOUNDARY MISC KINETIC TOTAL TEMP POTENTIAL TOTAL3 TEMPAVG PRESSURE GPRESSURE VOLUME PRESSAVG GPRESSAVG
ENERGY: 500000 0.0000 0.0000 0.0000 0.0000 -13827.7201 2164.4777 0.0000 0.0000 912.8741 -10750.3682 154.3613 -11663.2423 -10748.5079 154.3613 -987.6515 -928.8674 29608.4566 -987.6515 -928.8674
ENERGY: 600000 0.0000 0.0000 0.0000 0.0000 -13442.6904 2079.5086 0.0000 0.0000 1072.2644 -10290.9174 181.3132 -11363.1818 -10288.7383 180.1788 -212.4965 -146.9222 28976.2797 4.8363 4.8858
TCL: Running 100000 steps at 210 kelvin.
TCL: Setting parameter langevinTemp to 210
TCL: Running for 100000 steps
ETITLE: TS BOND ANGLE DIHED IMPRP ELECT VDW BOUNDARY MISC KINETIC TOTAL TEMP POTENTIAL TOTAL3 TEMPAVG PRESSURE GPRESSURE VOLUME PRESSAVG GPRESSAVG
ENERGY: 600000 0.0000 0.0000 0.0000 0.0000 -13442.6904 2079.5086 0.0000 0.0000 1071.7162 -10291.4656 181.2205 -11363.1818 -10289.6609 181.2205 -205.5418 -147.3909 28976.2797 -205.5418 -147.3909
ENERGY: 700000 0.0000 0.0000 0.0000 0.0000 -12842.9067 1964.7133 0.0000 0.0000 1270.3592 -9607.8342 214.8098 -10878.1934 -9605.7725 209.6313 618.1211 662.4405 28926.2945 3.2012 3.2409
TCL: Running 100000 steps at 240 kelvin.
TCL: Setting parameter langevinTemp to 240
TCL: Running for 100000 steps
ETITLE: TS BOND ANGLE DIHED IMPRP ELECT VDW BOUNDARY MISC KINETIC TOTAL TEMP POTENTIAL TOTAL3 TEMPAVG PRESSURE GPRESSURE VOLUME PRESSAVG GPRESSAVG
ENERGY: 700000 0.0000 0.0000 0.0000 0.0000 -12842.9067 1964.7133 0.0000 0.0000 1269.7444 -9608.4490 214.7058 -10878.1934 -9605.9476 214.7058 564.0406 660.5459 28926.2945 564.0406 660.5459
ENERGY: 800000 0.0000 0.0000 0.0000 0.0000 -12251.8202 1741.5835 0.0000 0.0000 1430.5813 -9079.6554 241.9023 -10510.2367 -9075.5285 239.8717 21.3367 84.0048 29259.0448 2.9995 2.8872
TCL: Running 100000 steps at 270 kelvin.
TCL: Setting parameter langevinTemp to 270
TCL: Running for 100000 steps
ETITLE: TS BOND ANGLE DIHED IMPRP ELECT VDW BOUNDARY MISC KINETIC TOTAL TEMP POTENTIAL TOTAL3 TEMPAVG PRESSURE GPRESSURE VOLUME PRESSAVG GPRESSAVG
ENERGY: 800000 0.0000 0.0000 0.0000 0.0000 -12251.8202 1741.5835 0.0000 0.0000 1429.8529 -9080.3838 241.7791 -10510.2367 -9078.1844 241.7791 -6.6189 84.2099 29259.0448 -6.6189 84.2099
ENERGY: 900000 0.0000 0.0000 0.0000 0.0000 -11628.9713 1565.7601 0.0000 0.0000 1579.9812 -8483.2300 267.1649 -10063.2112 -8481.5102 269.7469 -396.6976 -310.7006 30201.3251 2.6722 2.5736
TCL: Running 1000000 steps at 300 kelvin.
TCL: Setting parameter langevinTemp to 300
TCL: Running for 1000000 steps
ETITLE: TS BOND ANGLE DIHED IMPRP ELECT VDW BOUNDARY MISC KINETIC TOTAL TEMP POTENTIAL TOTAL3 TEMPAVG PRESSURE GPRESSURE VOLUME PRESSAVG GPRESSAVG
ENERGY: 900000 0.0000 0.0000 0.0000 0.0000 -11628.9713 1565.7601 0.0000 0.0000 1579.1902 -8484.0210 267.0311 -10063.2112 -8481.5596 267.0311 -381.5771 -311.3291 30201.3251 -381.5771 -311.3291
ENERGY: 1100000 0.0000 0.0000 0.0000 0.0000 -11029.9945 1404.5730 0.0000 0.0000 1789.6472 -7835.7743 302.6181 -9625.4215 -7832.6224 300.6620 -388.7100 -349.7464 31072.8035 3.4187 3.5028
ENERGY: 1300000 0.0000 0.0000 0.0000 0.0000 -11174.1324 1489.2660 0.0000 0.0000 1759.6360 -7925.2303 297.5434 -9684.8663 -7922.1140 300.0869 -52.9634 58.8825 30918.8883 3.4750 3.4620
ENERGY: 1500000 0.0000 0.0000 0.0000 0.0000 -11173.6678 1520.0250 0.0000 0.0000 1758.4918 -7895.1511 297.3499 -9653.6428 -7892.3910 300.4792 460.1274 546.6422 30645.4995 3.2668 3.2368
ENERGY: 1700000 0.0000 0.0000 0.0000 0.0000 -11143.3078 1490.1976 0.0000 0.0000 1778.2683 -7874.8419 300.6940 -9653.1102 -7871.2776 300.6735 236.2432 361.2517 30770.1634 3.5084 3.6624
ENERGY: 1900000 0.0000 0.0000 0.0000 0.0000 -11130.9065 1469.4076 0.0000 0.0000 1750.6634 -7910.8355 296.0262 -9661.4989 -7908.9740 299.3955 200.2243 244.3601 30469.9892 2.6125 2.6503
TCL: Exiting due to exit command.
