Info: SIMULATION PARAMETERS:
Info: TIMESTEP               2
Info: NUMBER OF STEPS        0
Info: STEPS PER CYCLE        10
Info: PERIODIC CELL BASIS 1  37.133 0 0
Info: PERIODIC CELL BASIS 2  0 35.847 0
Info: PERIODIC CELL BASIS 3  0 0 33.876
Info: PERIODIC CELL CENTER   0 0 0
Info: WRAPPING WATERS AROUND PERIODIC BOUNDARIES ON OUTPUT.
Info: WRAPPING ALL CLUSTERS AROUND PERIODIC BOUNDARIES ON OUTPUT.
Info: FIRST LDB TIMESTEP     50
Info: LAST LDB TIMESTEP     -1
Info: HOM BACKGROUND SCALING 1
Info: PME BACKGROUND SCALING 1
Info: MIN ATOMS PER PATCH    40
Info: EMPTY PATCH LOAD       40 ATOMS
Info: INITIAL TEMPERATURE    300
Info: CENTER OF MASS MOVING INITIALLY? NO
Info: DIELECTRIC             1
Info: EXCLUDE                SCALED ONE-FOUR
Info: 1-4 ELECTROSTATICS SCALED BY 0.833333
Info: MODIFIED 1-4 VDW PARAMETERS WILL BE USED
Info: DCD FILENAME           mobley_3775790_equil.dcd
Info: DCD FREQUENCY          100000
Info: DCD FIRST STEP         100000
Info: DCD FILE WILL CONTAIN UNIT CELL DATA
Info: XST FILENAME           mobley_3775790_equil.xst
Info: XST FREQUENCY          100000
Info: NO VELOCITY DCD OUTPUT
Info: NO FORCE DCD OUTPUT
Info: OUTPUT FILENAME        mobley_3775790_equil
Info: BINARY OUTPUT FILES WILL BE USED
Info: RESTART FILENAME       mobley_3775790_equil.restart
Info: RESTART FREQUENCY      100000
Info: BINARY RESTART FILES WILL BE USED
Info: CUTOFF                 9
Info: PAIRLIST DISTANCE      11
Info: PAIRLIST SHRINK RATE   0.01
Info: PAIRLIST GROW RATE     0.01
Info: PAIRLIST TRIGGER       0.3
Info: PAIRLISTS PER CYCLE    2
Info: PAIRLISTS ENABLED
Info: MARGIN                 8
Info: HYDROGEN GROUP CUTOFF  2.5
Info: PATCH DIMENSION        21.5
Info: ENERGY OUTPUT STEPS    100000
Info: ENERGY EVALUATION STEPS    100000
Info: OUTPUT ENERGY PRECISION 4
Info: CROSSTERM ENERGY INCLUDED IN DIHEDRAL
Info: TIMING OUTPUT STEPS    1000000
Info: PRESSURE OUTPUT STEPS  100000
Info: FIXED ATOMS ACTIVE
Info: LANGEVIN DYNAMICS ACTIVE
Info: LANGEVIN TEMPERATURE   30
Info: LANGEVIN USING BBK INTEGRATOR
Info: LANGEVIN DAMPING COEFFICIENT IS 1 INVERSE PS
Info: LANGEVIN DYNAMICS APPLIED TO HYDROGENS
Info: LANGEVIN PISTON PRESSURE CONTROL ACTIVE
Info:        TARGET PRESSURE IS 1.01325 BAR
Info:     OSCILLATION PERIOD IS 50 FS
Info:             DECAY TIME IS 25 FS
Info:     PISTON TEMPERATURE IS 300 K
Info:       PRESSURE CONTROL IS GROUP-BASED
Info:    INITIAL STRAIN RATE IS 0 0 0
Info:       CELL FLUCTUATION IS ISOTROPIC
Info: PARTICLE MESH EWALD (PME) ACTIVE
Info: PME TOLERANCE               1e-06
Info: PME EWALD COEFFICIENT       0.348832
Info: PME INTERPOLATION ORDER     4
Info: PME GRID DIMENSIONS         40 36 36
Info: PME MAXIMUM GRID SPACING    1
Info: FULL ELECTROSTATIC EVALUATION FREQUENCY      2
Info: USING VERLET I (r-RESPA) MTS SCHEME.
Info: C1 SPLITTING OF LONG RANGE ELECTROSTATICS
Info: PLACING ATOMS IN PATCHES BY HYDROGEN GROUPS
Info: RIGID BONDS TO HYDROGEN : ALL
Info:         ERROR TOLERANCE : 1e-08
Info:          MAX ITERATIONS : 100
Info: RIGID WATER USING SETTLE ALGORITHM
Info: RANDOM NUMBER SEED     1743729107
Info: USE HYDROGEN BONDS?    NO
Info: Using AMBER format force field!
Info: AMBER PARM FILE        mobley_3775790.prmtop
Info: COORDINATE PDB         mobley_3775790.pdb
Info: Exclusions will be read from PARM file!
Info: SCNB (VDW SCALING)     2
Info: USING ARITHMETIC MEAN TO COMBINE L-J SIGMA PARAMETERS
Info: BINARY COORDINATES     mobley_3775790_min.coor
Info: SUMMARY OF PARAMETERS:
Info: 9 BONDS
Info: 10 ANGLES
Info:   10 HARMONIC
Info:   0 COSINE-BASED
Info: 4 DIHEDRAL
Info: 0 IMPROPER
Info: 0 CROSSTERM
Info: 0 VDW
Info: 36 VDW_PAIRS
Info: 0 NBTHOLE_PAIRS
Info: STRUCTURE SUMMARY:
Info: 2956 ATOMS
Info: 2956 BONDS
Info: 21 ANGLES
Info: 31 DIHEDRALS
Info: 0 IMPROPERS
Info: 0 CROSSTERMS
Info: 2998 EXCLUSIONS
Info: 13 FIXED ATOMS
Info: 2950 RIGID BONDS
Info: 7 RIGID BONDS BETWEEN FIXED ATOMS
Info: 5886 DEGREES OF FREEDOM
Info: 987 HYDROGEN GROUPS
Info: 4 ATOMS IN LARGEST HYDROGEN GROUP
Info: 987 MIGRATION GROUPS
Info: 4 ATOMS IN LARGEST MIGRATION GROUP
Info: 6 HYDROGEN GROUPS WITH ALL ATOMS FIXED
Info: TOTAL MASS = 17754.8 amu
Info: TOTAL CHARGE = -1.49012e-08 e
Info: MASS DENSITY = 0.653838 g/cm^3
Info: ATOM DENSITY = 0.065554 atoms/A^3
Info: ADDED 0 IMPLICIT EXCLUSIONS
Info: NONBONDED TABLE R-SQUARED SPACING: 0.0625
Info: NONBONDED TABLE SIZE: 705 POINTS
Info: REMOVING COM VELOCITY 0.00642222 -0.0247123 0.0855146
TCL: Running for 100000 steps
ETITLE: TS BOND ANGLE DIHED IMPRP ELECT VDW BOUNDARY MISC KINETIC TOTAL TEMP POTENTIAL TOTAL3 TEMPAVG PRESSURE GPRESSURE VOLUME PRESSAVG GPRESSAVG
ENERGY: 0 0.0000 0.0000 0.0000 0.0000 -13675.7845 2422.8959 0.0000 0.0000 1772.8578 -9480.0308 303.1405 -11252.8886 -9479.6870 303.1405 635.5568 664.3200 45092.5689 635.5568 664.3200
ENERGY: 100000 0.0000 0.0000 0.0000 0.0000 -14302.6812 2552.2321 0.0000 0.0000 178.1809 -11572.2682 30.4671 -11750.4492 -11571.9609 30.9115 648.2422 705.3642 29275.0561 3.4013 3.4192
TCL: Running 100000 steps at 60 kelvin.
TCL: Setting parameter langevinTemp to 60
TCL: Running for 100000 steps
ETITLE: TS BOND ANGLE DIHED IMPRP ELECT VDW BOUNDARY MISC KINETIC TOTAL TEMP POTENTIAL TOTAL3 TEMPAVG PRESSURE GPRESSURE VOLUME PRESSAVG GPRESSAVG
ENERGY: 100000 0.0000 0.0000 0.0000 0.0000 -14302.6812 2552.2321 0.0000 0.0000 178.0953 -11572.3539 30.4525 -11750.4492 -11572.0262 30.4525 650.3999 705.1479 29275.0561 650.3999 705.1479
ENERGY: 200000 0.0000 0.0000 0.0000 0.0000 -14196.2689 2518.4901 0.0000 0.0000 350.0783 -11327.7005 59.8598 -11677.7788 -11326.6816 59.9728 834.1732 881.4460 29099.0830 4.6861 4.7684
TCL: Running 100000 steps at 90 kelvin.
TCL: Setting parameter langevinTemp to 90
TCL: Running for 100000 steps
ETITLE: TS BOND ANGLE DIHED IMPRP ELECT VDW BOUNDARY MISC KINETIC TOTAL TEMP POTENTIAL TOTAL3 TEMPAVG PRESSURE GPRESSURE VOLUME PRESSAVG GPRESSAVG
ENERGY: 200000 0.0000 0.0000 0.0000 0.0000 -14196.2689 2518.4901 0.0000 0.0000 349.8972 -11327.8816 59.8288 -11677.7788 -11327.2283 59.8288 824.4900 881.6760 29099.0830 824.4900 881.6760
ENERGY: 300000 0.0000 0.0000 0.0000 0.0000 -13813.4627 2229.8294 0.0000 0.0000 533.7547 -11049.8787 91.2666 -11583.6333 -11048.2427 89.9973 -1299.3032 -1237.4952 29307.6806 3.5029 3.4324
TCL: Running 100000 steps at 120 kelvin.
TCL: Setting parameter langevinTemp to 120
TCL: Running for 100000 steps
ETITLE: TS BOND ANGLE DIHED IMPRP ELECT VDW BOUNDARY MISC KINETIC TOTAL TEMP POTENTIAL TOTAL3 TEMPAVG PRESSURE GPRESSURE VOLUME PRESSAVG GPRESSAVG
ENERGY: 300000 0.0000 0.0000 0.0000 0.0000 -13813.4627 2229.8294 0.0000 0.0000 533.4858 -11050.1475 91.2206 -11583.6333 -11048.8283 91.2206 -1281.5419 -1238.1243 29307.6806 -1281.5419 -1238.1243
ENERGY: 400000 0.0000 0.0000 0.0000 0.0000 -13672.3883 2194.3616 0.0000 0.0000 712.6016 -10765.4250 121.8476 -11478.0266 -10763.3412 119.9204 -1203.1689 -1131.8214 29252.0703 4.7893 4.7202
TCL: Running 100000 steps at 150 kelvin.
TCL: Setting parameter langevinTemp to 150
TCL: Running for 100000 steps
ETITLE: TS BOND ANGLE DIHED IMPRP ELECT VDW BOUNDARY MISC KINETIC TOTAL TEMP POTENTIAL TOTAL3 TEMPAVG PRESSURE GPRESSURE VOLUME PRESSAVG GPRESSAVG
ENERGY: 400000 0.0000 0.0000 0.0000 0.0000 -13672.3883 2194.3616 0.0000 0.0000 712.2526 -10765.7740 121.7879 -11478.0266 -10764.0140 121.7879 -1182.2678 -1131.9105 29252.0703 -1182.2678 -1131.9105
ENERGY: 500000 0.0000 0.0000 0.0000 0.0000 -13446.1533 2150.1703 0.0000 0.0000 861.4072 -10434.5758 147.2918 -11295.9830 -10430.9884 150.1873 -1105.2794 -1048.7877 29662.8060 3.8895 3.8200
TCL: Running 100000 steps at 180 kelvin.
TCL: Setting parameter langevinTemp to 180
TCL: Running for 100000 steps
ETITLE: TS BOND ANGLE DIHED IMPRP ELECT VDW BOUNDARY MISC KINETIC TOTAL TEMP POTENTIAL TOTAL3 TEMPAVG PRESSURE GPRESSURE VOLUME PRESSAVG GPRESSAVG
ENERGY: 500000 0.0000 0.0000 0.0000 0.0000 -13446.1533 2150.1703 0.0000 0.0000 860.9722 -10435.0108 147.2174 -11295.9830 -10433.0765 147.2174 -1093.6699 -1047.3553 29662.8060 -1093.6699 -1047.3553
ENERGY: 600000 0.0000 0.0000 0.0000 0.0000 -13060.5911 2082.9232 0.0000 0.0000 1058.8094 -9918.8585 181.0456 -10977.6679 -9916.6450 179.6884 -197.3884 -113.0203 28853.4145 2.2025 2.2000
TCL: Running 100000 steps at 210 kelvin.
TCL: Setting parameter langevinTemp to 210
TCL: Running for 100000 steps
ETITLE: TS BOND ANGLE DIHED IMPRP ELECT VDW BOUNDARY MISC KINETIC TOTAL TEMP POTENTIAL TOTAL3 TEMPAVG PRESSURE GPRESSURE VOLUME PRESSAVG GPRESSAVG
ENERGY: 600000 0.0000 0.0000 0.0000 0.0000 -13060.5911 2082.9232 0.0000 0.0000 1058.2810 -9919.3869 180.9552 -10977.6679 -9917.3798 180.9552 -147.4136 -113.0371 28853.4145 -147.4136 -113.0371
ENERGY: 700000 0.0000 0.0000 0.0000 0.0000 -12475.9595 1934.2654 0.0000 0.0000 1245.3227 -9296.3714 212.9374 -10541.6941 -9293.1136 210.0084 238.4246 301.9763 28964.9032 2.9629 3.0971
TCL: Running 100000 steps at 240 kelvin.
TCL: Setting parameter langevinTemp to 240
TCL: Running for 100000 steps
ETITLE: TS BOND ANGLE DIHED IMPRP ELECT VDW BOUNDARY MISC KINETIC TOTAL TEMP POTENTIAL TOTAL3 TEMPAVG PRESSURE GPRESSURE VOLUME PRESSAVG GPRESSAVG
ENERGY: 700000 0.0000 0.0000 0.0000 0.0000 -12475.9595 1934.2654 0.0000 0.0000 1244.7149 -9296.9791 212.8335 -10541.6941 -9294.7036 212.8335 234.8747 301.3579 28964.9032 234.8747 301.3579
ENERGY: 800000 0.0000 0.0000 0.0000 0.0000 -11806.5991 1673.9262 0.0000 0.0000 1400.7270 -8731.9459 239.5100 -10132.6729 -8728.8630 239.7053 -186.2893 -110.3655 28831.9250 4.0997 4.2049
TCL: Running 100000 steps at 270 kelvin.
TCL: Setting parameter langevinTemp to 270
TCL: Running for 100000 steps
ETITLE: TS BOND ANGLE DIHED IMPRP ELECT VDW BOUNDARY MISC KINETIC TOTAL TEMP POTENTIAL TOTAL3 TEMPAVG PRESSURE GPRESSURE VOLUME PRESSAVG GPRESSAVG
ENERGY: 800000 0.0000 0.0000 0.0000 0.0000 -11806.5991 1673.9262 0.0000 0.0000 1400.0138 -8732.6592 239.3880 -10132.6729 -8729.9052 239.3880 -175.0726 -109.8495 28831.9250 -175.0726 -109.8495
ENERGY: 900000 0.0000 0.0000 0.0000 0.0000 -11031.7431 1392.1918 0.0000 0.0000 1548.4843 -8091.0671 264.7750 -9639.5513 -8089.3358 269.8096 -1514.9431 -1351.3725 30030.6411 3.3760 3.2648
TCL: Running 1000000 steps at 300 kelvin.
TCL: Setting parameter langevinTemp to 300
TCL: Running for 1000000 steps
ETITLE: TS BOND ANGLE DIHED IMPRP ELECT VDW BOUNDARY MISC KINETIC TOTAL TEMP POTENTIAL TOTAL3 TEMPAVG PRESSURE GPRESSURE VOLUME PRESSAVG GPRESSAVG
ENERGY: 900000 0.0000 0.0000 0.0000 0.0000 -11031.7431 1392.1918 0.0000 0.0000 1547.6649 -8091.8865 264.6349 -9639.5513 -8089.3668 264.6349 -1447.1107 -1353.7568 30030.6411 -1447.1107 -1353.7568
ENERGY: 1100000 0.0000 0.0000 0.0000 0.0000 -10741.7502 1428.5737 0.0000 0.0000 1775.1194 -7538.0570 303.5273 -9313.1764 -7532.7924 299.7079 -34.3527 104.8218 30221.3361 3.1465 3.0993
ENERGY: 1300000 0.0000 0.0000 0.0000 0.0000 -10629.6401 1451.8369 0.0000 0.0000 1739.5699 -7438.2334 297.4487 -9177.8033 -7435.9474 300.1560 237.2021 294.5522 30864.7140 3.9127 4.0218
ENERGY: 1500000 0.0000 0.0000 0.0000 0.0000 -10718.3405 1432.8630 0.0000 0.0000 1776.1714 -7509.3061 303.7071 -9285.4775 -7506.3335 300.1852 213.8860 253.6250 30067.0647 4.0352 4.2671
ENERGY: 1700000 0.0000 0.0000 0.0000 0.0000 -10666.0561 1389.7141 0.0000 0.0000 1792.4704 -7483.8716 306.4941 -9276.3420 -7478.4618 300.2742 -391.2959 -357.6973 30563.4551 2.7463 2.8651
ENERGY: 1900000 0.0000 0.0000 0.0000 0.0000 -10733.7669 1407.0239 0.0000 0.0000 1804.1237 -7522.6193 308.4867 -9326.7430 -7517.1891 300.4832 -237.9776 -139.8048 30195.0202 3.6741 3.5961
TCL: Exiting due to exit command.
