Info: SIMULATION PARAMETERS:
Info: TIMESTEP               2
Info: NUMBER OF STEPS        0
Info: STEPS PER CYCLE        10
Info: PERIODIC CELL BASIS 1  37.38 0 0
Info: PERIODIC CELL BASIS 2  0 34.26 0
Info: PERIODIC CELL BASIS 3  0 0 33.876
Info: PERIODIC CELL CENTER   0 0 0
Info: WRAPPING WATERS AROUND PERIODIC BOUNDARIES ON OUTPUT.
Info: WRAPPING ALL CLUSTERS AROUND PERIODIC BOUNDARIES ON OUTPUT.
Info: FIRST LDB TIMESTEP     50
Info: LAST LDB TIMESTEP     -1
Info: HOM BACKGROUND SCALING 1
Info: PME BACKGROUND SCALING 1
Info: MIN ATOMS PER PATCH    40
Info: EMPTY PATCH LOAD       40 ATOMS
Info: INITIAL TEMPERATURE    300
Info: CENTER OF MASS MOVING INITIALLY? NO
Info: DIELECTRIC             1
Info: EXCLUDE                SCALED ONE-FOUR
Info: 1-4 ELECTROSTATICS SCALED BY 0.833333
Info: MODIFIED 1-4 VDW PARAMETERS WILL BE USED
Info: DCD FILENAME           mobley_8785107_equil.dcd
Info: DCD FREQUENCY          100000
Info: DCD FIRST STEP         100000
Info: DCD FILE WILL CONTAIN UNIT CELL DATA
Info: XST FILENAME           mobley_8785107_equil.xst
Info: XST FREQUENCY          100000
Info: NO VELOCITY DCD OUTPUT
Info: NO FORCE DCD OUTPUT
Info: OUTPUT FILENAME        mobley_8785107_equil
Info: BINARY OUTPUT FILES WILL BE USED
Info: RESTART FILENAME       mobley_8785107_equil.restart
Info: RESTART FREQUENCY      100000
Info: BINARY RESTART FILES WILL BE USED
Info: CUTOFF                 9
Info: PAIRLIST DISTANCE      11
Info: PAIRLIST SHRINK RATE   0.01
Info: PAIRLIST GROW RATE     0.01
Info: PAIRLIST TRIGGER       0.3
Info: PAIRLISTS PER CYCLE    2
Info: PAIRLISTS ENABLED
Info: MARGIN                 8
Info: HYDROGEN GROUP CUTOFF  2.5
Info: PATCH DIMENSION        21.5
Info: ENERGY OUTPUT STEPS    100000
Info: ENERGY EVALUATION STEPS    100000
Info: OUTPUT ENERGY PRECISION 4
Info: CROSSTERM ENERGY INCLUDED IN DIHEDRAL
Info: TIMING OUTPUT STEPS    1000000
Info: PRESSURE OUTPUT STEPS  100000
Info: FIXED ATOMS ACTIVE
Info: LANGEVIN DYNAMICS ACTIVE
Info: LANGEVIN TEMPERATURE   30
Info: LANGEVIN USING BBK INTEGRATOR
Info: LANGEVIN DAMPING COEFFICIENT IS 1 INVERSE PS
Info: LANGEVIN DYNAMICS APPLIED TO HYDROGENS
Info: LANGEVIN PISTON PRESSURE CONTROL ACTIVE
Info:        TARGET PRESSURE IS 1.01325 BAR
Info:     OSCILLATION PERIOD IS 50 FS
Info:             DECAY TIME IS 25 FS
Info:     PISTON TEMPERATURE IS 300 K
Info:       PRESSURE CONTROL IS GROUP-BASED
Info:    INITIAL STRAIN RATE IS 0 0 0
Info:       CELL FLUCTUATION IS ISOTROPIC
Info: PARTICLE MESH EWALD (PME) ACTIVE
Info: PME TOLERANCE               1e-06
Info: PME EWALD COEFFICIENT       0.348832
Info: PME INTERPOLATION ORDER     4
Info: PME GRID DIMENSIONS         40 36 36
Info: PME MAXIMUM GRID SPACING    1
Info: FULL ELECTROSTATIC EVALUATION FREQUENCY      2
Info: USING VERLET I (r-RESPA) MTS SCHEME.
Info: C1 SPLITTING OF LONG RANGE ELECTROSTATICS
Info: PLACING ATOMS IN PATCHES BY HYDROGEN GROUPS
Info: RIGID BONDS TO HYDROGEN : ALL
Info:         ERROR TOLERANCE : 1e-08
Info:          MAX ITERATIONS : 100
Info: RIGID WATER USING SETTLE ALGORITHM
Info: RANDOM NUMBER SEED     1743764184
Info: USE HYDROGEN BONDS?    NO
Info: Using AMBER format force field!
Info: AMBER PARM FILE        mobley_8785107.prmtop
Info: COORDINATE PDB         mobley_8785107.pdb
Info: Exclusions will be read from PARM file!
Info: SCNB (VDW SCALING)     2
Info: USING ARITHMETIC MEAN TO COMBINE L-J SIGMA PARAMETERS
Info: BINARY COORDINATES     mobley_8785107_min.coor
Info: SUMMARY OF PARAMETERS:
Info: 6 BONDS
Info: 7 ANGLES
Info:   7 HARMONIC
Info:   0 COSINE-BASED
Info: 11 DIHEDRAL
Info: 0 IMPROPER
Info: 0 CROSSTERM
Info: 0 VDW
Info: 21 VDW_PAIRS
Info: 0 NBTHOLE_PAIRS
Info: STRUCTURE SUMMARY:
Info: 2938 ATOMS
Info: 2938 BONDS
Info: 37 ANGLES
Info: 71 DIHEDRALS
Info: 0 IMPROPERS
Info: 0 CROSSTERMS
Info: 3021 EXCLUSIONS
Info: 19 FIXED ATOMS
Info: 2931 RIGID BONDS
Info: 12 RIGID BONDS BETWEEN FIXED ATOMS
Info: 5838 DEGREES OF FREEDOM
Info: 980 HYDROGEN GROUPS
Info: 4 ATOMS IN LARGEST HYDROGEN GROUP
Info: 980 MIGRATION GROUPS
Info: 4 ATOMS IN LARGEST MIGRATION GROUP
Info: 7 HYDROGEN GROUPS WITH ALL ATOMS FIXED
Info: TOTAL MASS = 17629.7 amu
Info: TOTAL CHARGE = -0.000500023 e
Info: MASS DENSITY = 0.674817 g/cm^3
Info: ATOM DENSITY = 0.0677225 atoms/A^3
Info: ADDED 0 IMPLICIT EXCLUSIONS
Info: NONBONDED TABLE R-SQUARED SPACING: 0.0625
Info: NONBONDED TABLE SIZE: 705 POINTS
Info: REMOVING COM VELOCITY -0.0252512 -0.0771889 0.0433206
TCL: Running for 100000 steps
ETITLE: TS BOND ANGLE DIHED IMPRP ELECT VDW BOUNDARY MISC KINETIC TOTAL TEMP POTENTIAL TOTAL3 TEMPAVG PRESSURE GPRESSURE VOLUME PRESSAVG GPRESSAVG
ENERGY: 0 0.0000 0.0000 0.0000 0.0000 -13538.6278 2350.4030 0.0000 0.0000 1711.9429 -9476.2819 295.1315 -11188.2248 -9475.9460 295.1315 277.2805 311.0527 43382.9200 277.2805 311.0527
ENERGY: 100000 0.0000 0.0000 0.0000 0.0000 -14115.0871 2423.1331 0.0000 0.0000 175.5407 -11516.4134 30.2624 -11691.9540 -11515.8834 30.8629 -344.9789 -266.0865 28459.6731 4.6188 4.6320
TCL: Running 100000 steps at 60 kelvin.
TCL: Setting parameter langevinTemp to 60
TCL: Running for 100000 steps
ETITLE: TS BOND ANGLE DIHED IMPRP ELECT VDW BOUNDARY MISC KINETIC TOTAL TEMP POTENTIAL TOTAL3 TEMPAVG PRESSURE GPRESSURE VOLUME PRESSAVG GPRESSAVG
ENERGY: 100000 0.0000 0.0000 0.0000 0.0000 -14115.0871 2423.1331 0.0000 0.0000 175.4521 -11516.5019 30.2472 -11691.9540 -11516.1175 30.2472 -324.5586 -265.9115 28459.6731 -324.5586 -265.9115
ENERGY: 200000 0.0000 0.0000 0.0000 0.0000 -14061.7849 2407.5716 0.0000 0.0000 350.5285 -11303.6848 60.4296 -11654.2133 -11302.9680 60.0323 10.9554 103.0966 27958.8813 3.3750 3.3179
TCL: Running 100000 steps at 90 kelvin.
TCL: Setting parameter langevinTemp to 90
TCL: Running for 100000 steps
ETITLE: TS BOND ANGLE DIHED IMPRP ELECT VDW BOUNDARY MISC KINETIC TOTAL TEMP POTENTIAL TOTAL3 TEMPAVG PRESSURE GPRESSURE VOLUME PRESSAVG GPRESSAVG
ENERGY: 200000 0.0000 0.0000 0.0000 0.0000 -14061.7849 2407.5716 0.0000 0.0000 350.3580 -11303.8553 60.4002 -11654.2133 -11303.2655 60.4002 31.9261 103.3387 27958.8813 31.9261 103.3387
ENERGY: 300000 0.0000 0.0000 0.0000 0.0000 -13943.7169 2394.5609 0.0000 0.0000 524.8463 -11024.3096 90.4812 -11549.1560 -11022.5003 89.9863 396.8502 433.5662 28072.4847 4.1112 4.0987
TCL: Running 100000 steps at 120 kelvin.
TCL: Setting parameter langevinTemp to 120
TCL: Running for 100000 steps
ETITLE: TS BOND ANGLE DIHED IMPRP ELECT VDW BOUNDARY MISC KINETIC TOTAL TEMP POTENTIAL TOTAL3 TEMPAVG PRESSURE GPRESSURE VOLUME PRESSAVG GPRESSAVG
ENERGY: 300000 0.0000 0.0000 0.0000 0.0000 -13943.7169 2394.5609 0.0000 0.0000 524.5829 -11024.5730 90.4358 -11549.1560 -11023.6663 90.4358 379.4389 433.8572 28072.4847 379.4389 433.8572
ENERGY: 400000 0.0000 0.0000 0.0000 0.0000 -13786.8671 2387.8634 0.0000 0.0000 682.4780 -10716.5257 117.6562 -11399.0037 -10714.4451 119.8878 920.8521 940.3579 28248.6077 3.7887 3.8291
TCL: Running 100000 steps at 150 kelvin.
TCL: Setting parameter langevinTemp to 150
TCL: Running for 100000 steps
ETITLE: TS BOND ANGLE DIHED IMPRP ELECT VDW BOUNDARY MISC KINETIC TOTAL TEMP POTENTIAL TOTAL3 TEMPAVG PRESSURE GPRESSURE VOLUME PRESSAVG GPRESSAVG
ENERGY: 400000 0.0000 0.0000 0.0000 0.0000 -13786.8671 2387.8634 0.0000 0.0000 682.1354 -10716.8684 117.5972 -11399.0037 -10715.7957 117.5972 887.2829 941.0894 28248.6077 887.2829 941.0894
ENERGY: 500000 0.0000 0.0000 0.0000 0.0000 -13499.1010 2267.1344 0.0000 0.0000 876.6876 -10355.2789 151.1371 -11231.9666 -10353.5981 150.0488 453.3467 469.1244 28361.3678 3.2354 3.1427
TCL: Running 100000 steps at 180 kelvin.
TCL: Setting parameter langevinTemp to 180
TCL: Running for 100000 steps
ETITLE: TS BOND ANGLE DIHED IMPRP ELECT VDW BOUNDARY MISC KINETIC TOTAL TEMP POTENTIAL TOTAL3 TEMPAVG PRESSURE GPRESSURE VOLUME PRESSAVG GPRESSAVG
ENERGY: 500000 0.0000 0.0000 0.0000 0.0000 -13499.1010 2267.1344 0.0000 0.0000 876.2697 -10355.6969 151.0651 -11231.9666 -10354.4374 151.0651 411.9887 469.7844 28361.3678 411.9887 469.7844
ENERGY: 600000 0.0000 0.0000 0.0000 0.0000 -13090.8678 2129.7536 0.0000 0.0000 1031.4757 -9929.6385 177.8219 -10961.1141 -9927.8364 179.8330 96.7607 187.1036 28649.3583 5.6861 5.5620
TCL: Running 100000 steps at 210 kelvin.
TCL: Setting parameter langevinTemp to 210
TCL: Running for 100000 steps
ETITLE: TS BOND ANGLE DIHED IMPRP ELECT VDW BOUNDARY MISC KINETIC TOTAL TEMP POTENTIAL TOTAL3 TEMPAVG PRESSURE GPRESSURE VOLUME PRESSAVG GPRESSAVG
ENERGY: 600000 0.0000 0.0000 0.0000 0.0000 -13090.8678 2129.7536 0.0000 0.0000 1030.9701 -9930.1441 177.7347 -10961.1141 -9928.3803 177.7347 120.5285 187.2018 28649.3583 120.5285 187.2018
ENERGY: 700000 0.0000 0.0000 0.0000 0.0000 -12450.4495 1905.7585 0.0000 0.0000 1230.6596 -9314.0314 212.1603 -10544.6909 -9311.0356 210.0989 -306.2798 -223.6023 29064.9090 4.2518 4.2993
TCL: Running 100000 steps at 240 kelvin.
TCL: Setting parameter langevinTemp to 240
TCL: Running for 100000 steps
ETITLE: TS BOND ANGLE DIHED IMPRP ELECT VDW BOUNDARY MISC KINETIC TOTAL TEMP POTENTIAL TOTAL3 TEMPAVG PRESSURE GPRESSURE VOLUME PRESSAVG GPRESSAVG
ENERGY: 700000 0.0000 0.0000 0.0000 0.0000 -12450.4495 1905.7585 0.0000 0.0000 1230.0604 -9314.6306 212.0571 -10544.6909 -9312.8160 212.0571 -301.1900 -223.3360 29064.9090 -301.1900 -223.3360
ENERGY: 800000 0.0000 0.0000 0.0000 0.0000 -11742.0791 1706.5856 0.0000 0.0000 1363.3724 -8672.1212 235.0395 -10035.4935 -8669.0781 239.7041 -148.9130 -92.6586 29174.6167 3.5044 3.4900
TCL: Running 100000 steps at 270 kelvin.
TCL: Setting parameter langevinTemp to 270
TCL: Running for 100000 steps
ETITLE: TS BOND ANGLE DIHED IMPRP ELECT VDW BOUNDARY MISC KINETIC TOTAL TEMP POTENTIAL TOTAL3 TEMPAVG PRESSURE GPRESSURE VOLUME PRESSAVG GPRESSAVG
ENERGY: 800000 0.0000 0.0000 0.0000 0.0000 -11742.0791 1706.5856 0.0000 0.0000 1362.6878 -8672.8058 234.9214 -10035.4935 -8669.8567 234.9214 -167.1131 -92.4533 29174.6167 -167.1131 -92.4533
ENERGY: 900000 0.0000 0.0000 0.0000 0.0000 -11252.6215 1606.6951 0.0000 0.0000 1590.6039 -8055.3224 274.2132 -9645.9264 -8052.0786 269.2390 419.8351 482.0885 29404.9515 1.9932 2.0610
TCL: Running 1000000 steps at 300 kelvin.
TCL: Setting parameter langevinTemp to 300
TCL: Running for 1000000 steps
ETITLE: TS BOND ANGLE DIHED IMPRP ELECT VDW BOUNDARY MISC KINETIC TOTAL TEMP POTENTIAL TOTAL3 TEMPAVG PRESSURE GPRESSURE VOLUME PRESSAVG GPRESSAVG
ENERGY: 900000 0.0000 0.0000 0.0000 0.0000 -11252.6215 1606.6951 0.0000 0.0000 1589.7878 -8056.1386 274.0725 -9645.9264 -8054.3444 274.0725 402.0898 481.7922 29404.9515 402.0898 481.7922
ENERGY: 1100000 0.0000 0.0000 0.0000 0.0000 -10537.4408 1387.8194 0.0000 0.0000 1751.4395 -7398.1820 301.9405 -9149.6214 -7396.2222 299.8277 -7.2447 54.0767 30180.2488 3.6540 3.4769
ENERGY: 1300000 0.0000 0.0000 0.0000 0.0000 -10685.3816 1464.3638 0.0000 0.0000 1713.0953 -7507.9225 295.3302 -9221.0178 -7504.4589 300.6604 320.9322 485.7879 30012.0091 3.1716 3.1006
ENERGY: 1500000 0.0000 0.0000 0.0000 0.0000 -10735.3233 1457.5408 0.0000 0.0000 1803.4306 -7474.3519 310.9036 -9277.7825 -7467.7280 300.1586 213.3119 267.8895 29862.6074 4.6524 4.8968
ENERGY: 1700000 0.0000 0.0000 0.0000 0.0000 -10584.0705 1391.5774 0.0000 0.0000 1769.0310 -7423.4622 304.9732 -9192.4931 -7419.1414 299.2940 -300.0474 -258.8112 30732.3433 5.2933 4.8764
ENERGY: 1900000 0.0000 0.0000 0.0000 0.0000 -10742.0163 1474.4012 0.0000 0.0000 1764.8085 -7502.8066 304.2453 -9267.6151 -7499.2041 300.1161 410.2707 510.1998 29961.2977 3.3181 2.9876
TCL: Exiting due to exit command.
