Info: SIMULATION PARAMETERS:
Info: TIMESTEP               2
Info: NUMBER OF STEPS        0
Info: STEPS PER CYCLE        10
Info: PERIODIC CELL BASIS 1  37.435 0 0
Info: PERIODIC CELL BASIS 2  0 35.411 0
Info: PERIODIC CELL BASIS 3  0 0 33.088
Info: PERIODIC CELL CENTER   0 0 0
Info: WRAPPING WATERS AROUND PERIODIC BOUNDARIES ON OUTPUT.
Info: WRAPPING ALL CLUSTERS AROUND PERIODIC BOUNDARIES ON OUTPUT.
Info: FIRST LDB TIMESTEP     50
Info: LAST LDB TIMESTEP     -1
Info: HOM BACKGROUND SCALING 1
Info: PME BACKGROUND SCALING 1
Info: MIN ATOMS PER PATCH    40
Info: EMPTY PATCH LOAD       40 ATOMS
Info: INITIAL TEMPERATURE    300
Info: CENTER OF MASS MOVING INITIALLY? NO
Info: DIELECTRIC             1
Info: EXCLUDE                SCALED ONE-FOUR
Info: 1-4 ELECTROSTATICS SCALED BY 0.833333
Info: MODIFIED 1-4 VDW PARAMETERS WILL BE USED
Info: DCD FILENAME           mobley_2925352_equil.dcd
Info: DCD FREQUENCY          100000
Info: DCD FIRST STEP         100000
Info: DCD FILE WILL CONTAIN UNIT CELL DATA
Info: XST FILENAME           mobley_2925352_equil.xst
Info: XST FREQUENCY          100000
Info: NO VELOCITY DCD OUTPUT
Info: NO FORCE DCD OUTPUT
Info: OUTPUT FILENAME        mobley_2925352_equil
Info: BINARY OUTPUT FILES WILL BE USED
Info: RESTART FILENAME       mobley_2925352_equil.restart
Info: RESTART FREQUENCY      100000
Info: BINARY RESTART FILES WILL BE USED
Info: CUTOFF                 9
Info: PAIRLIST DISTANCE      11
Info: PAIRLIST SHRINK RATE   0.01
Info: PAIRLIST GROW RATE     0.01
Info: PAIRLIST TRIGGER       0.3
Info: PAIRLISTS PER CYCLE    2
Info: PAIRLISTS ENABLED
Info: MARGIN                 8
Info: HYDROGEN GROUP CUTOFF  2.5
Info: PATCH DIMENSION        21.5
Info: ENERGY OUTPUT STEPS    100000
Info: ENERGY EVALUATION STEPS    100000
Info: OUTPUT ENERGY PRECISION 4
Info: CROSSTERM ENERGY INCLUDED IN DIHEDRAL
Info: TIMING OUTPUT STEPS    1000000
Info: PRESSURE OUTPUT STEPS  100000
Info: FIXED ATOMS ACTIVE
Info: LANGEVIN DYNAMICS ACTIVE
Info: LANGEVIN TEMPERATURE   30
Info: LANGEVIN USING BBK INTEGRATOR
Info: LANGEVIN DAMPING COEFFICIENT IS 1 INVERSE PS
Info: LANGEVIN DYNAMICS APPLIED TO HYDROGENS
Info: LANGEVIN PISTON PRESSURE CONTROL ACTIVE
Info:        TARGET PRESSURE IS 1.01325 BAR
Info:     OSCILLATION PERIOD IS 50 FS
Info:             DECAY TIME IS 25 FS
Info:     PISTON TEMPERATURE IS 300 K
Info:       PRESSURE CONTROL IS GROUP-BASED
Info:    INITIAL STRAIN RATE IS 0 0 0
Info:       CELL FLUCTUATION IS ISOTROPIC
Info: PARTICLE MESH EWALD (PME) ACTIVE
Info: PME TOLERANCE               1e-06
Info: PME EWALD COEFFICIENT       0.348832
Info: PME INTERPOLATION ORDER     4
Info: PME GRID DIMENSIONS         40 36 36
Info: PME MAXIMUM GRID SPACING    1
Info: FULL ELECTROSTATIC EVALUATION FREQUENCY      2
Info: USING VERLET I (r-RESPA) MTS SCHEME.
Info: C1 SPLITTING OF LONG RANGE ELECTROSTATICS
Info: PLACING ATOMS IN PATCHES BY HYDROGEN GROUPS
Info: RIGID BONDS TO HYDROGEN : ALL
Info:         ERROR TOLERANCE : 1e-08
Info:          MAX ITERATIONS : 100
Info: RIGID WATER USING SETTLE ALGORITHM
Info: RANDOM NUMBER SEED     1743738414
Info: USE HYDROGEN BONDS?    NO
Info: Using AMBER format force field!
Info: AMBER PARM FILE        mobley_2925352.prmtop
Info: COORDINATE PDB         mobley_2925352.pdb
Info: Exclusions will be read from PARM file!
Info: SCNB (VDW SCALING)     2
Info: USING ARITHMETIC MEAN TO COMBINE L-J SIGMA PARAMETERS
Info: BINARY COORDINATES     mobley_2925352_min.coor
Info: SUMMARY OF PARAMETERS:
Info: 8 BONDS
Info: 7 ANGLES
Info:   7 HARMONIC
Info:   0 COSINE-BASED
Info: 4 DIHEDRAL
Info: 0 IMPROPER
Info: 0 CROSSTERM
Info: 0 VDW
Info: 28 VDW_PAIRS
Info: 0 NBTHOLE_PAIRS
Info: STRUCTURE SUMMARY:
Info: 2959 ATOMS
Info: 2959 BONDS
Info: 25 ANGLES
Info: 38 DIHEDRALS
Info: 0 IMPROPERS
Info: 0 CROSSTERMS
Info: 3013 EXCLUSIONS
Info: 16 FIXED ATOMS
Info: 2951 RIGID BONDS
Info: 8 RIGID BONDS BETWEEN FIXED ATOMS
Info: 5886 DEGREES OF FREEDOM
Info: 989 HYDROGEN GROUPS
Info: 4 ATOMS IN LARGEST HYDROGEN GROUP
Info: 989 MIGRATION GROUPS
Info: 4 ATOMS IN LARGEST MIGRATION GROUP
Info: 8 HYDROGEN GROUPS WITH ALL ATOMS FIXED
Info: TOTAL MASS = 17781.8 amu
Info: TOTAL CHARGE = 0.00010002 e
Info: MASS DENSITY = 0.673208 g/cm^3
Info: ATOM DENSITY = 0.0674619 atoms/A^3
Info: ADDED 0 IMPLICIT EXCLUSIONS
Info: NONBONDED TABLE R-SQUARED SPACING: 0.0625
Info: NONBONDED TABLE SIZE: 705 POINTS
Info: REMOVING COM VELOCITY 0.113675 -0.18397 0.0389875
TCL: Running for 100000 steps
ETITLE: TS BOND ANGLE DIHED IMPRP ELECT VDW BOUNDARY MISC KINETIC TOTAL TEMP POTENTIAL TOTAL3 TEMPAVG PRESSURE GPRESSURE VOLUME PRESSAVG GPRESSAVG
ENERGY: 0 0.0000 0.0000 0.0000 0.0000 -13686.5590 2391.3257 0.0000 0.0000 1766.6027 -9528.6306 302.0710 -11295.2334 -9528.3015 302.0710 394.8506 427.1009 43861.8097 394.8506 427.1009
ENERGY: 100000 0.0000 0.0000 0.0000 0.0000 -14294.2896 2528.1006 0.0000 0.0000 177.4581 -11588.7309 30.3435 -11766.1890 -11588.1199 30.9079 342.1761 414.0035 29372.0091 3.1147 3.0465
TCL: Running 100000 steps at 60 kelvin.
TCL: Setting parameter langevinTemp to 60
TCL: Running for 100000 steps
ETITLE: TS BOND ANGLE DIHED IMPRP ELECT VDW BOUNDARY MISC KINETIC TOTAL TEMP POTENTIAL TOTAL3 TEMPAVG PRESSURE GPRESSURE VOLUME PRESSAVG GPRESSAVG
ENERGY: 100000 0.0000 0.0000 0.0000 0.0000 -14294.2896 2528.1006 0.0000 0.0000 177.3679 -11588.8211 30.3281 -11766.1890 -11588.5120 30.3281 355.2047 414.2321 29372.0091 355.2047 414.2321
ENERGY: 200000 0.0000 0.0000 0.0000 0.0000 -14271.7048 2521.8534 0.0000 0.0000 352.2040 -11397.6474 60.2233 -11749.8514 -11397.2712 59.9153 644.6516 699.5494 28661.3504 4.5228 4.5407
TCL: Running 100000 steps at 90 kelvin.
TCL: Setting parameter langevinTemp to 90
TCL: Running for 100000 steps
ETITLE: TS BOND ANGLE DIHED IMPRP ELECT VDW BOUNDARY MISC KINETIC TOTAL TEMP POTENTIAL TOTAL3 TEMPAVG PRESSURE GPRESSURE VOLUME PRESSAVG GPRESSAVG
ENERGY: 200000 0.0000 0.0000 0.0000 0.0000 -14271.7048 2521.8534 0.0000 0.0000 352.0214 -11397.8300 60.1921 -11749.8514 -11396.9889 60.1921 654.7674 699.6192 28661.3504 654.7674 699.6192
ENERGY: 300000 0.0000 0.0000 0.0000 0.0000 -14091.8126 2435.3171 0.0000 0.0000 517.5355 -11138.9600 88.4933 -11656.4955 -11138.2943 90.0008 253.9562 269.8114 28757.2006 3.3606 3.3864
TCL: Running 100000 steps at 120 kelvin.
TCL: Setting parameter langevinTemp to 120
TCL: Running for 100000 steps
ETITLE: TS BOND ANGLE DIHED IMPRP ELECT VDW BOUNDARY MISC KINETIC TOTAL TEMP POTENTIAL TOTAL3 TEMPAVG PRESSURE GPRESSURE VOLUME PRESSAVG GPRESSAVG
ENERGY: 300000 0.0000 0.0000 0.0000 0.0000 -14091.8126 2435.3171 0.0000 0.0000 517.2802 -11139.2153 88.4496 -11656.4955 -11138.0691 88.4496 219.3780 269.1490 28757.2006 219.3780 269.1490
ENERGY: 400000 0.0000 0.0000 0.0000 0.0000 -13850.5240 2304.1620 0.0000 0.0000 676.8381 -10869.5240 115.7324 -11546.3621 -10868.4912 119.8431 -308.1037 -258.1318 28826.4680 4.0439 4.0290
TCL: Running 100000 steps at 150 kelvin.
TCL: Setting parameter langevinTemp to 150
TCL: Running for 100000 steps
ETITLE: TS BOND ANGLE DIHED IMPRP ELECT VDW BOUNDARY MISC KINETIC TOTAL TEMP POTENTIAL TOTAL3 TEMPAVG PRESSURE GPRESSURE VOLUME PRESSAVG GPRESSAVG
ENERGY: 400000 0.0000 0.0000 0.0000 0.0000 -13850.5240 2304.1620 0.0000 0.0000 676.4854 -10869.8767 115.6721 -11546.3621 -10868.4043 115.6721 -300.1041 -258.7658 28826.4680 -300.1041 -258.7658
ENERGY: 500000 0.0000 0.0000 0.0000 0.0000 -13658.5587 2311.6041 0.0000 0.0000 882.5502 -10464.4043 150.9071 -11346.9545 -10461.7278 149.8043 205.4349 213.5277 29429.7273 5.5648 5.7046
TCL: Running 100000 steps at 180 kelvin.
TCL: Setting parameter langevinTemp to 180
TCL: Running for 100000 steps
ETITLE: TS BOND ANGLE DIHED IMPRP ELECT VDW BOUNDARY MISC KINETIC TOTAL TEMP POTENTIAL TOTAL3 TEMPAVG PRESSURE GPRESSURE VOLUME PRESSAVG GPRESSAVG
ENERGY: 500000 0.0000 0.0000 0.0000 0.0000 -13658.5587 2311.6041 0.0000 0.0000 882.1229 -10464.8317 150.8340 -11346.9545 -10463.2912 150.8340 174.0978 214.3265 29429.7273 174.0978 214.3265
ENERGY: 600000 0.0000 0.0000 0.0000 0.0000 -13166.8413 2080.2421 0.0000 0.0000 1050.7028 -10035.8964 179.6594 -11086.5992 -10033.2597 179.9231 -482.6788 -382.5314 28986.8497 4.9397 4.8134
TCL: Running 100000 steps at 210 kelvin.
TCL: Setting parameter langevinTemp to 210
TCL: Running for 100000 steps
ETITLE: TS BOND ANGLE DIHED IMPRP ELECT VDW BOUNDARY MISC KINETIC TOTAL TEMP POTENTIAL TOTAL3 TEMPAVG PRESSURE GPRESSURE VOLUME PRESSAVG GPRESSAVG
ENERGY: 600000 0.0000 0.0000 0.0000 0.0000 -13166.8413 2080.2421 0.0000 0.0000 1050.1683 -10036.4309 179.5680 -11086.5992 -10034.5419 179.5680 -444.8689 -381.9190 28986.8497 -444.8689 -381.9190
ENERGY: 700000 0.0000 0.0000 0.0000 0.0000 -12450.3767 1858.4375 0.0000 0.0000 1208.7415 -9383.1976 206.6824 -10591.9392 -9381.0944 209.6736 -472.2952 -405.0582 28969.5686 2.8171 2.6785
TCL: Running 100000 steps at 240 kelvin.
TCL: Setting parameter langevinTemp to 240
TCL: Running for 100000 steps
ETITLE: TS BOND ANGLE DIHED IMPRP ELECT VDW BOUNDARY MISC KINETIC TOTAL TEMP POTENTIAL TOTAL3 TEMPAVG PRESSURE GPRESSURE VOLUME PRESSAVG GPRESSAVG
ENERGY: 700000 0.0000 0.0000 0.0000 0.0000 -12450.3767 1858.4375 0.0000 0.0000 1208.1254 -9383.8138 206.5771 -10591.9392 -9382.0410 206.5771 -485.8193 -406.3682 28969.5686 -485.8193 -406.3682
ENERGY: 800000 0.0000 0.0000 0.0000 0.0000 -11771.3858 1691.6947 0.0000 0.0000 1392.5647 -8687.1264 238.1143 -10079.6911 -8683.2266 239.5807 -111.0380 -6.1954 29303.4688 3.8596 3.8614
TCL: Running 100000 steps at 270 kelvin.
TCL: Setting parameter langevinTemp to 270
TCL: Running for 100000 steps
ETITLE: TS BOND ANGLE DIHED IMPRP ELECT VDW BOUNDARY MISC KINETIC TOTAL TEMP POTENTIAL TOTAL3 TEMPAVG PRESSURE GPRESSURE VOLUME PRESSAVG GPRESSAVG
ENERGY: 800000 0.0000 0.0000 0.0000 0.0000 -11771.3858 1691.6947 0.0000 0.0000 1391.8638 -8687.8272 237.9945 -10079.6911 -8685.4647 237.9945 -93.8105 -4.5490 29303.4688 -93.8105 -4.5490
ENERGY: 900000 0.0000 0.0000 0.0000 0.0000 -11372.9270 1622.4678 0.0000 0.0000 1563.0272 -8187.4320 267.2617 -9750.4592 -8182.9876 269.5907 557.7801 645.7814 29232.9059 3.5487 3.4060
TCL: Running 1000000 steps at 300 kelvin.
TCL: Setting parameter langevinTemp to 300
TCL: Running for 1000000 steps
ETITLE: TS BOND ANGLE DIHED IMPRP ELECT VDW BOUNDARY MISC KINETIC TOTAL TEMP POTENTIAL TOTAL3 TEMPAVG PRESSURE GPRESSURE VOLUME PRESSAVG GPRESSAVG
ENERGY: 900000 0.0000 0.0000 0.0000 0.0000 -11372.9270 1622.4678 0.0000 0.0000 1562.2379 -8188.2213 267.1267 -9750.4592 -8185.7905 267.1267 555.3194 645.7236 29232.9059 555.3194 645.7236
ENERGY: 1100000 0.0000 0.0000 0.0000 0.0000 -10737.2874 1420.1324 0.0000 0.0000 1749.8548 -7567.3001 299.2073 -9317.1550 -7563.0946 300.3648 -38.7269 37.3958 30407.5436 3.3097 3.1248
ENERGY: 1300000 0.0000 0.0000 0.0000 0.0000 -10621.1176 1422.0187 0.0000 0.0000 1806.8726 -7392.2263 308.9567 -9199.0989 -7387.3808 299.9071 264.7736 278.3591 30718.6442 2.3604 2.5202
ENERGY: 1500000 0.0000 0.0000 0.0000 0.0000 -10736.0665 1396.6376 0.0000 0.0000 1699.1679 -7640.2610 290.5403 -9339.4289 -7635.7935 299.5366 -357.5670 -328.5146 30507.5116 2.6790 2.6987
ENERGY: 1700000 0.0000 0.0000 0.0000 0.0000 -10797.9531 1515.6083 0.0000 0.0000 1746.7859 -7535.5589 298.6825 -9282.3448 -7532.7909 300.1157 775.5918 864.0885 30090.9702 3.2778 3.2997
ENERGY: 1900000 0.0000 0.0000 0.0000 0.0000 -10789.9296 1429.4908 0.0000 0.0000 1797.6508 -7562.7880 307.3799 -9360.4388 -7559.5787 300.7134 -223.7424 -240.4085 30614.7595 3.0724 3.0892
TCL: Exiting due to exit command.
