Info: SIMULATION PARAMETERS:
Info: TIMESTEP               2
Info: NUMBER OF STEPS        0
Info: STEPS PER CYCLE        10
Info: PERIODIC CELL BASIS 1  37.435 0 0
Info: PERIODIC CELL BASIS 2  0 35.779 0
Info: PERIODIC CELL BASIS 3  0 0 33.27
Info: PERIODIC CELL CENTER   0 0 0
Info: WRAPPING WATERS AROUND PERIODIC BOUNDARIES ON OUTPUT.
Info: WRAPPING ALL CLUSTERS AROUND PERIODIC BOUNDARIES ON OUTPUT.
Info: FIRST LDB TIMESTEP     50
Info: LAST LDB TIMESTEP     -1
Info: HOM BACKGROUND SCALING 1
Info: PME BACKGROUND SCALING 1
Info: MIN ATOMS PER PATCH    40
Info: EMPTY PATCH LOAD       40 ATOMS
Info: INITIAL TEMPERATURE    300
Info: CENTER OF MASS MOVING INITIALLY? NO
Info: DIELECTRIC             1
Info: EXCLUDE                SCALED ONE-FOUR
Info: 1-4 ELECTROSTATICS SCALED BY 0.833333
Info: MODIFIED 1-4 VDW PARAMETERS WILL BE USED
Info: DCD FILENAME           mobley_4678740_equil.dcd
Info: DCD FREQUENCY          100000
Info: DCD FIRST STEP         100000
Info: DCD FILE WILL CONTAIN UNIT CELL DATA
Info: XST FILENAME           mobley_4678740_equil.xst
Info: XST FREQUENCY          100000
Info: NO VELOCITY DCD OUTPUT
Info: NO FORCE DCD OUTPUT
Info: OUTPUT FILENAME        mobley_4678740_equil
Info: BINARY OUTPUT FILES WILL BE USED
Info: RESTART FILENAME       mobley_4678740_equil.restart
Info: RESTART FREQUENCY      100000
Info: BINARY RESTART FILES WILL BE USED
Info: CUTOFF                 9
Info: PAIRLIST DISTANCE      11
Info: PAIRLIST SHRINK RATE   0.01
Info: PAIRLIST GROW RATE     0.01
Info: PAIRLIST TRIGGER       0.3
Info: PAIRLISTS PER CYCLE    2
Info: PAIRLISTS ENABLED
Info: MARGIN                 8
Info: HYDROGEN GROUP CUTOFF  2.5
Info: PATCH DIMENSION        21.5
Info: ENERGY OUTPUT STEPS    100000
Info: ENERGY EVALUATION STEPS    100000
Info: OUTPUT ENERGY PRECISION 4
Info: CROSSTERM ENERGY INCLUDED IN DIHEDRAL
Info: TIMING OUTPUT STEPS    1000000
Info: PRESSURE OUTPUT STEPS  100000
Info: FIXED ATOMS ACTIVE
Info: LANGEVIN DYNAMICS ACTIVE
Info: LANGEVIN TEMPERATURE   30
Info: LANGEVIN USING BBK INTEGRATOR
Info: LANGEVIN DAMPING COEFFICIENT IS 1 INVERSE PS
Info: LANGEVIN DYNAMICS APPLIED TO HYDROGENS
Info: LANGEVIN PISTON PRESSURE CONTROL ACTIVE
Info:        TARGET PRESSURE IS 1.01325 BAR
Info:     OSCILLATION PERIOD IS 50 FS
Info:             DECAY TIME IS 25 FS
Info:     PISTON TEMPERATURE IS 300 K
Info:       PRESSURE CONTROL IS GROUP-BASED
Info:    INITIAL STRAIN RATE IS 0 0 0
Info:       CELL FLUCTUATION IS ISOTROPIC
Info: PARTICLE MESH EWALD (PME) ACTIVE
Info: PME TOLERANCE               1e-06
Info: PME EWALD COEFFICIENT       0.348832
Info: PME INTERPOLATION ORDER     4
Info: PME GRID DIMENSIONS         40 36 36
Info: PME MAXIMUM GRID SPACING    1
Info: FULL ELECTROSTATIC EVALUATION FREQUENCY      2
Info: USING VERLET I (r-RESPA) MTS SCHEME.
Info: C1 SPLITTING OF LONG RANGE ELECTROSTATICS
Info: PLACING ATOMS IN PATCHES BY HYDROGEN GROUPS
Info: RIGID BONDS TO HYDROGEN : ALL
Info:         ERROR TOLERANCE : 1e-08
Info:          MAX ITERATIONS : 100
Info: RIGID WATER USING SETTLE ALGORITHM
Info: RANDOM NUMBER SEED     1743742771
Info: USE HYDROGEN BONDS?    NO
Info: Using AMBER format force field!
Info: AMBER PARM FILE        mobley_4678740.prmtop
Info: COORDINATE PDB         mobley_4678740.pdb
Info: Exclusions will be read from PARM file!
Info: SCNB (VDW SCALING)     2
Info: USING ARITHMETIC MEAN TO COMBINE L-J SIGMA PARAMETERS
Info: BINARY COORDINATES     mobley_4678740_min.coor
Info: SUMMARY OF PARAMETERS:
Info: 6 BONDS
Info: 5 ANGLES
Info:   5 HARMONIC
Info:   0 COSINE-BASED
Info: 3 DIHEDRAL
Info: 0 IMPROPER
Info: 0 CROSSTERM
Info: 0 VDW
Info: 21 VDW_PAIRS
Info: 0 NBTHOLE_PAIRS
Info: STRUCTURE SUMMARY:
Info: 3000 ATOMS
Info: 3000 BONDS
Info: 30 ANGLES
Info: 42 DIHEDRALS
Info: 0 IMPROPERS
Info: 0 CROSSTERMS
Info: 3063 EXCLUSIONS
Info: 18 FIXED ATOMS
Info: 2986 RIGID BONDS
Info: 4 RIGID BONDS BETWEEN FIXED ATOMS
Info: 5964 DEGREES OF FREEDOM
Info: 1008 HYDROGEN GROUPS
Info: 3 ATOMS IN LARGEST HYDROGEN GROUP
Info: 1008 MIGRATION GROUPS
Info: 3 ATOMS IN LARGEST MIGRATION GROUP
Info: 14 HYDROGEN GROUPS WITH ALL ATOMS FIXED
Info: TOTAL MASS = 18122 amu
Info: TOTAL CHARGE = 0.000200085 e
Info: MASS DENSITY = 0.675316 g/cm^3
Info: ATOM DENSITY = 0.0673228 atoms/A^3
Info: ADDED 0 IMPLICIT EXCLUSIONS
Info: NONBONDED TABLE R-SQUARED SPACING: 0.0625
Info: NONBONDED TABLE SIZE: 705 POINTS
Info: REMOVING COM VELOCITY 0.0704587 0.121347 -0.0430782
TCL: Running for 100000 steps
ETITLE: TS BOND ANGLE DIHED IMPRP ELECT VDW BOUNDARY MISC KINETIC TOTAL TEMP POTENTIAL TOTAL3 TEMPAVG PRESSURE GPRESSURE VOLUME PRESSAVG GPRESSAVG
ENERGY: 0 0.0000 0.0000 0.0000 0.0000 -13949.8787 2406.2333 0.0000 0.0000 1829.7483 -9713.8971 308.7764 -11543.6454 -9713.5516 308.7764 157.4665 191.2660 44561.4010 157.4665 191.2660
ENERGY: 100000 0.0000 0.0000 0.0000 0.0000 -14452.0748 2514.4180 0.0000 0.0000 175.5281 -11762.1288 29.6210 -11937.6569 -11761.9489 30.8670 -38.0542 11.9738 30700.5065 3.7892 3.7654
TCL: Running 100000 steps at 60 kelvin.
TCL: Setting parameter langevinTemp to 60
TCL: Running for 100000 steps
ETITLE: TS BOND ANGLE DIHED IMPRP ELECT VDW BOUNDARY MISC KINETIC TOTAL TEMP POTENTIAL TOTAL3 TEMPAVG PRESSURE GPRESSURE VOLUME PRESSAVG GPRESSAVG
ENERGY: 100000 0.0000 0.0000 0.0000 0.0000 -14452.0748 2514.4180 0.0000 0.0000 175.4426 -11762.2143 29.6065 -11937.6569 -11761.8508 29.6065 -38.8768 11.7562 30700.5065 -38.8768 11.7562
ENERGY: 200000 0.0000 0.0000 0.0000 0.0000 -14292.2967 2375.6693 0.0000 0.0000 350.1453 -11566.4821 59.0882 -11916.6274 -11566.0870 59.9117 -709.9613 -661.3999 29763.9250 3.8480 3.9163
TCL: Running 100000 steps at 90 kelvin.
TCL: Setting parameter langevinTemp to 90
TCL: Running for 100000 steps
ETITLE: TS BOND ANGLE DIHED IMPRP ELECT VDW BOUNDARY MISC KINETIC TOTAL TEMP POTENTIAL TOTAL3 TEMPAVG PRESSURE GPRESSURE VOLUME PRESSAVG GPRESSAVG
ENERGY: 200000 0.0000 0.0000 0.0000 0.0000 -14292.2967 2375.6693 0.0000 0.0000 349.9692 -11566.6582 59.0585 -11916.6274 -11565.9581 59.0585 -708.2240 -661.8665 29763.9250 -708.2240 -661.8665
ENERGY: 300000 0.0000 0.0000 0.0000 0.0000 -14331.5235 2507.1499 0.0000 0.0000 537.0400 -11287.3337 90.6274 -11824.3737 -11286.0205 89.8824 745.0895 804.8864 29398.5250 4.4094 4.4339
TCL: Running 100000 steps at 120 kelvin.
TCL: Setting parameter langevinTemp to 120
TCL: Running for 100000 steps
ETITLE: TS BOND ANGLE DIHED IMPRP ELECT VDW BOUNDARY MISC KINETIC TOTAL TEMP POTENTIAL TOTAL3 TEMPAVG PRESSURE GPRESSURE VOLUME PRESSAVG GPRESSAVG
ENERGY: 300000 0.0000 0.0000 0.0000 0.0000 -14331.5235 2507.1499 0.0000 0.0000 536.7697 -11287.6040 90.5818 -11824.3737 -11286.6852 90.5818 759.5784 804.5207 29398.5250 759.5784 804.5207
ENERGY: 400000 0.0000 0.0000 0.0000 0.0000 -13891.7524 2211.7381 0.0000 0.0000 711.8965 -10968.1177 120.1350 -11680.0143 -10965.9213 120.0534 -1113.6065 -1033.1357 29505.0863 3.1443 3.0632
TCL: Running 100000 steps at 150 kelvin.
TCL: Setting parameter langevinTemp to 150
TCL: Running for 100000 steps
ETITLE: TS BOND ANGLE DIHED IMPRP ELECT VDW BOUNDARY MISC KINETIC TOTAL TEMP POTENTIAL TOTAL3 TEMPAVG PRESSURE GPRESSURE VOLUME PRESSAVG GPRESSAVG
ENERGY: 400000 0.0000 0.0000 0.0000 0.0000 -13891.7524 2211.7381 0.0000 0.0000 711.5446 -10968.4697 120.0756 -11680.0143 -10967.1861 120.0756 -1078.4413 -1032.1022 29505.0863 -1078.4413 -1032.1022
ENERGY: 500000 0.0000 0.0000 0.0000 0.0000 -13793.1800 2263.6640 0.0000 0.0000 848.7201 -10680.7959 143.2245 -11529.5160 -10678.7755 150.0658 -14.8746 -4.4673 29194.4099 3.6114 3.5530
TCL: Running 100000 steps at 180 kelvin.
TCL: Setting parameter langevinTemp to 180
TCL: Running for 100000 steps
ETITLE: TS BOND ANGLE DIHED IMPRP ELECT VDW BOUNDARY MISC KINETIC TOTAL TEMP POTENTIAL TOTAL3 TEMPAVG PRESSURE GPRESSURE VOLUME PRESSAVG GPRESSAVG
ENERGY: 500000 0.0000 0.0000 0.0000 0.0000 -13793.1800 2263.6640 0.0000 0.0000 848.2552 -10681.2608 143.1460 -11529.5160 -10679.5049 143.1460 -50.0885 -5.5552 29194.4099 -50.0885 -5.5552
ENERGY: 600000 0.0000 0.0000 0.0000 0.0000 -13419.2983 2134.0067 0.0000 0.0000 1020.2828 -10265.0088 172.1763 -11285.2916 -10261.1300 179.9187 -307.8847 -245.3342 29608.0688 3.4324 3.4898
TCL: Running 100000 steps at 210 kelvin.
TCL: Setting parameter langevinTemp to 210
TCL: Running for 100000 steps
ETITLE: TS BOND ANGLE DIHED IMPRP ELECT VDW BOUNDARY MISC KINETIC TOTAL TEMP POTENTIAL TOTAL3 TEMPAVG PRESSURE GPRESSURE VOLUME PRESSAVG GPRESSAVG
ENERGY: 600000 0.0000 0.0000 0.0000 0.0000 -13419.2983 2134.0067 0.0000 0.0000 1019.7399 -10265.5516 172.0847 -11285.2916 -10263.5000 172.0847 -317.4789 -245.3447 29608.0688 -317.4789 -245.3447
ENERGY: 700000 0.0000 0.0000 0.0000 0.0000 -12713.2545 1939.6616 0.0000 0.0000 1238.3812 -9535.2118 208.9811 -10773.5930 -9530.5387 210.2419 -12.9239 108.1556 29608.8732 2.7688 2.8474
TCL: Running 100000 steps at 240 kelvin.
TCL: Setting parameter langevinTemp to 240
TCL: Running for 100000 steps
ETITLE: TS BOND ANGLE DIHED IMPRP ELECT VDW BOUNDARY MISC KINETIC TOTAL TEMP POTENTIAL TOTAL3 TEMPAVG PRESSURE GPRESSURE VOLUME PRESSAVG GPRESSAVG
ENERGY: 700000 0.0000 0.0000 0.0000 0.0000 -12713.2545 1939.6616 0.0000 0.0000 1237.7651 -9535.8278 208.8772 -10773.5930 -9533.3852 208.8772 33.2213 109.4456 29608.8732 33.2213 109.4456
ENERGY: 800000 0.0000 0.0000 0.0000 0.0000 -12016.7066 1714.9225 0.0000 0.0000 1433.8090 -8867.9752 241.9603 -10301.7841 -8863.8667 240.2273 -291.3537 -237.2028 29972.8198 2.5038 2.6224
TCL: Running 100000 steps at 270 kelvin.
TCL: Setting parameter langevinTemp to 270
TCL: Running for 100000 steps
ETITLE: TS BOND ANGLE DIHED IMPRP ELECT VDW BOUNDARY MISC KINETIC TOTAL TEMP POTENTIAL TOTAL3 TEMPAVG PRESSURE GPRESSURE VOLUME PRESSAVG GPRESSAVG
ENERGY: 800000 0.0000 0.0000 0.0000 0.0000 -12016.7066 1714.9225 0.0000 0.0000 1433.1064 -8868.6778 241.8417 -10301.7841 -8866.2278 241.8417 -320.2329 -236.4139 29972.8198 -320.2329 -236.4139
ENERGY: 900000 0.0000 0.0000 0.0000 0.0000 -11531.8323 1598.7328 0.0000 0.0000 1599.7688 -8333.3307 269.9666 -9933.0995 -8329.8610 269.8455 -104.0264 -3.4810 30266.6431 3.7790 3.7074
TCL: Running 1000000 steps at 300 kelvin.
TCL: Setting parameter langevinTemp to 300
TCL: Running for 1000000 steps
ETITLE: TS BOND ANGLE DIHED IMPRP ELECT VDW BOUNDARY MISC KINETIC TOTAL TEMP POTENTIAL TOTAL3 TEMPAVG PRESSURE GPRESSURE VOLUME PRESSAVG GPRESSAVG
ENERGY: 900000 0.0000 0.0000 0.0000 0.0000 -11531.8323 1598.7328 0.0000 0.0000 1598.9282 -8334.1713 269.8247 -9933.0995 -8331.5538 269.8247 -102.1194 -4.3969 30266.6431 -102.1194 -4.3969
ENERGY: 1100000 0.0000 0.0000 0.0000 0.0000 -10929.4274 1456.3116 0.0000 0.0000 1795.0583 -7678.0575 302.9223 -9473.1158 -7675.0105 300.4854 159.0799 166.1416 31000.2380 3.5805 3.4540
ENERGY: 1300000 0.0000 0.0000 0.0000 0.0000 -10896.0933 1402.6518 0.0000 0.0000 1821.8439 -7671.5976 307.4425 -9493.4415 -7665.9580 300.4697 -463.1042 -458.0239 31266.3587 2.6046 2.6750
ENERGY: 1500000 0.0000 0.0000 0.0000 0.0000 -10960.8855 1411.2613 0.0000 0.0000 1849.9990 -7699.6251 312.1938 -9549.6242 -7694.4325 300.0305 -447.6833 -379.7539 31078.5653 1.4527 1.5880
ENERGY: 1700000 0.0000 0.0000 0.0000 0.0000 -11110.1887 1567.1019 0.0000 0.0000 1815.5794 -7727.5073 306.3854 -9543.0867 -7722.6542 300.1933 644.0067 743.9140 30956.3995 3.3046 3.5070
ENERGY: 1900000 0.0000 0.0000 0.0000 0.0000 -11033.9098 1477.1192 0.0000 0.0000 1802.4873 -7754.3032 304.1760 -9556.7905 -7752.7730 300.0289 24.5256 96.2181 30759.0485 2.9884 3.0366
TCL: Exiting due to exit command.
