Info: SIMULATION PARAMETERS:
Info: TIMESTEP               2
Info: NUMBER OF STEPS        0
Info: STEPS PER CYCLE        10
Info: PERIODIC CELL BASIS 1  37.968 0 0
Info: PERIODIC CELL BASIS 2  0 35.411 0
Info: PERIODIC CELL BASIS 3  0 0 31.349
Info: PERIODIC CELL CENTER   0 0 0
Info: WRAPPING WATERS AROUND PERIODIC BOUNDARIES ON OUTPUT.
Info: WRAPPING ALL CLUSTERS AROUND PERIODIC BOUNDARIES ON OUTPUT.
Info: FIRST LDB TIMESTEP     50
Info: LAST LDB TIMESTEP     -1
Info: HOM BACKGROUND SCALING 1
Info: PME BACKGROUND SCALING 1
Info: MIN ATOMS PER PATCH    40
Info: EMPTY PATCH LOAD       40 ATOMS
Info: INITIAL TEMPERATURE    300
Info: CENTER OF MASS MOVING INITIALLY? NO
Info: DIELECTRIC             1
Info: EXCLUDE                SCALED ONE-FOUR
Info: 1-4 ELECTROSTATICS SCALED BY 0.833333
Info: MODIFIED 1-4 VDW PARAMETERS WILL BE USED
Info: DCD FILENAME           mobley_4553008_equil.dcd
Info: DCD FREQUENCY          100000
Info: DCD FIRST STEP         100000
Info: DCD FILE WILL CONTAIN UNIT CELL DATA
Info: XST FILENAME           mobley_4553008_equil.xst
Info: XST FREQUENCY          100000
Info: NO VELOCITY DCD OUTPUT
Info: NO FORCE DCD OUTPUT
Info: OUTPUT FILENAME        mobley_4553008_equil
Info: BINARY OUTPUT FILES WILL BE USED
Info: RESTART FILENAME       mobley_4553008_equil.restart
Info: RESTART FREQUENCY      100000
Info: BINARY RESTART FILES WILL BE USED
Info: CUTOFF                 9
Info: PAIRLIST DISTANCE      11
Info: PAIRLIST SHRINK RATE   0.01
Info: PAIRLIST GROW RATE     0.01
Info: PAIRLIST TRIGGER       0.3
Info: PAIRLISTS PER CYCLE    2
Info: PAIRLISTS ENABLED
Info: MARGIN                 8
Info: HYDROGEN GROUP CUTOFF  2.5
Info: PATCH DIMENSION        21.5
Info: ENERGY OUTPUT STEPS    100000
Info: ENERGY EVALUATION STEPS    100000
Info: OUTPUT ENERGY PRECISION 4
Info: CROSSTERM ENERGY INCLUDED IN DIHEDRAL
Info: TIMING OUTPUT STEPS    1000000
Info: PRESSURE OUTPUT STEPS  100000
Info: FIXED ATOMS ACTIVE
Info: LANGEVIN DYNAMICS ACTIVE
Info: LANGEVIN TEMPERATURE   30
Info: LANGEVIN USING BBK INTEGRATOR
Info: LANGEVIN DAMPING COEFFICIENT IS 1 INVERSE PS
Info: LANGEVIN DYNAMICS APPLIED TO HYDROGENS
Info: LANGEVIN PISTON PRESSURE CONTROL ACTIVE
Info:        TARGET PRESSURE IS 1.01325 BAR
Info:     OSCILLATION PERIOD IS 50 FS
Info:             DECAY TIME IS 25 FS
Info:     PISTON TEMPERATURE IS 300 K
Info:       PRESSURE CONTROL IS GROUP-BASED
Info:    INITIAL STRAIN RATE IS 0 0 0
Info:       CELL FLUCTUATION IS ISOTROPIC
Info: PARTICLE MESH EWALD (PME) ACTIVE
Info: PME TOLERANCE               1e-06
Info: PME EWALD COEFFICIENT       0.348832
Info: PME INTERPOLATION ORDER     4
Info: PME GRID DIMENSIONS         40 36 32
Info: PME MAXIMUM GRID SPACING    1
Info: FULL ELECTROSTATIC EVALUATION FREQUENCY      2
Info: USING VERLET I (r-RESPA) MTS SCHEME.
Info: C1 SPLITTING OF LONG RANGE ELECTROSTATICS
Info: PLACING ATOMS IN PATCHES BY HYDROGEN GROUPS
Info: RIGID BONDS TO HYDROGEN : ALL
Info:         ERROR TOLERANCE : 1e-08
Info:          MAX ITERATIONS : 100
Info: RIGID WATER USING SETTLE ALGORITHM
Info: RANDOM NUMBER SEED     1743722028
Info: USE HYDROGEN BONDS?    NO
Info: Using AMBER format force field!
Info: AMBER PARM FILE        mobley_4553008.prmtop
Info: COORDINATE PDB         mobley_4553008.pdb
Info: Exclusions will be read from PARM file!
Info: SCNB (VDW SCALING)     2
Info: USING ARITHMETIC MEAN TO COMBINE L-J SIGMA PARAMETERS
Info: BINARY COORDINATES     mobley_4553008_min.coor
Info: SUMMARY OF PARAMETERS:
Info: 5 BONDS
Info: 3 ANGLES
Info:   3 HARMONIC
Info:   0 COSINE-BASED
Info: 2 DIHEDRAL
Info: 0 IMPROPER
Info: 0 CROSSTERM
Info: 0 VDW
Info: 15 VDW_PAIRS
Info: 0 NBTHOLE_PAIRS
Info: STRUCTURE SUMMARY:
Info: 2910 ATOMS
Info: 2910 BONDS
Info: 18 ANGLES
Info: 30 DIHEDRALS
Info: 0 IMPROPERS
Info: 0 CROSSTERMS
Info: 2949 EXCLUSIONS
Info: 12 FIXED ATOMS
Info: 2902 RIGID BONDS
Info: 4 RIGID BONDS BETWEEN FIXED ATOMS
Info: 5796 DEGREES OF FREEDOM
Info: 974 HYDROGEN GROUPS
Info: 3 ATOMS IN LARGEST HYDROGEN GROUP
Info: 974 MIGRATION GROUPS
Info: 3 ATOMS IN LARGEST MIGRATION GROUP
Info: 8 HYDROGEN GROUPS WITH ALL ATOMS FIXED
Info: TOTAL MASS = 17550.4 amu
Info: TOTAL CHARGE = 0.000300009 e
Info: MASS DENSITY = 0.691461 g/cm^3
Info: ATOM DENSITY = 0.069042 atoms/A^3
Info: ADDED 0 IMPLICIT EXCLUSIONS
Info: NONBONDED TABLE R-SQUARED SPACING: 0.0625
Info: NONBONDED TABLE SIZE: 705 POINTS
Info: REMOVING COM VELOCITY 0.174243 -0.0884754 0.243093
TCL: Running for 100000 steps
ETITLE: TS BOND ANGLE DIHED IMPRP ELECT VDW BOUNDARY MISC KINETIC TOTAL TEMP POTENTIAL TOTAL3 TEMPAVG PRESSURE GPRESSURE VOLUME PRESSAVG GPRESSAVG
ENERGY: 0 0.0000 0.0000 0.0000 0.0000 -13533.8845 2344.9277 0.0000 0.0000 1729.6474 -9459.3094 300.3444 -11188.9568 -9458.9731 300.3444 248.4718 283.8035 42148.2555 248.4718 283.8035
ENERGY: 100000 0.0000 0.0000 0.0000 0.0000 -14109.7752 2507.4873 0.0000 0.0000 176.7026 -11425.5853 30.6835 -11602.2879 -11425.1306 30.8563 592.1138 631.1855 28268.1863 4.8387 4.8467
TCL: Running 100000 steps at 60 kelvin.
TCL: Setting parameter langevinTemp to 60
TCL: Running for 100000 steps
ETITLE: TS BOND ANGLE DIHED IMPRP ELECT VDW BOUNDARY MISC KINETIC TOTAL TEMP POTENTIAL TOTAL3 TEMPAVG PRESSURE GPRESSURE VOLUME PRESSAVG GPRESSAVG
ENERGY: 100000 0.0000 0.0000 0.0000 0.0000 -14109.7752 2507.4873 0.0000 0.0000 176.6147 -11425.6732 30.6682 -11602.2879 -11425.2554 30.6682 579.6094 630.9386 28268.1863 579.6094 630.9386
ENERGY: 200000 0.0000 0.0000 0.0000 0.0000 -14043.1364 2510.8909 0.0000 0.0000 345.3283 -11186.9172 59.9645 -11532.2455 -11185.7784 59.8466 865.3611 884.6151 28300.9927 3.9180 3.8671
TCL: Running 100000 steps at 90 kelvin.
TCL: Setting parameter langevinTemp to 90
TCL: Running for 100000 steps
ETITLE: TS BOND ANGLE DIHED IMPRP ELECT VDW BOUNDARY MISC KINETIC TOTAL TEMP POTENTIAL TOTAL3 TEMPAVG PRESSURE GPRESSURE VOLUME PRESSAVG GPRESSAVG
ENERGY: 200000 0.0000 0.0000 0.0000 0.0000 -14043.1364 2510.8909 0.0000 0.0000 345.1560 -11187.0895 59.9346 -11532.2455 -11186.3419 59.9346 831.7594 884.6601 28300.9927 831.7594 884.6601
ENERGY: 300000 0.0000 0.0000 0.0000 0.0000 -13629.3353 2191.1139 0.0000 0.0000 521.6340 -10916.5874 90.5791 -11438.2214 -10915.7697 89.8560 -1651.8380 -1595.8353 29002.2964 3.6912 3.7685
TCL: Running 100000 steps at 120 kelvin.
TCL: Setting parameter langevinTemp to 120
TCL: Running for 100000 steps
ETITLE: TS BOND ANGLE DIHED IMPRP ELECT VDW BOUNDARY MISC KINETIC TOTAL TEMP POTENTIAL TOTAL3 TEMPAVG PRESSURE GPRESSURE VOLUME PRESSAVG GPRESSAVG
ENERGY: 300000 0.0000 0.0000 0.0000 0.0000 -13629.3353 2191.1139 0.0000 0.0000 521.3736 -10916.8478 90.5339 -11438.2214 -10915.7856 90.5339 -1648.5721 -1595.9579 29002.2964 -1648.5721 -1595.9579
ENERGY: 400000 0.0000 0.0000 0.0000 0.0000 -13513.7853 2206.4776 0.0000 0.0000 699.3154 -10607.9923 121.4325 -11307.3077 -10607.1807 120.0267 -1013.8384 -964.7404 28989.9810 5.1021 5.2100
TCL: Running 100000 steps at 150 kelvin.
TCL: Setting parameter langevinTemp to 150
TCL: Running for 100000 steps
ETITLE: TS BOND ANGLE DIHED IMPRP ELECT VDW BOUNDARY MISC KINETIC TOTAL TEMP POTENTIAL TOTAL3 TEMPAVG PRESSURE GPRESSURE VOLUME PRESSAVG GPRESSAVG
ENERGY: 400000 0.0000 0.0000 0.0000 0.0000 -13513.7853 2206.4776 0.0000 0.0000 698.9682 -10608.3395 121.3723 -11307.3077 -10606.8271 121.3723 -1004.7164 -965.8024 28989.9810 -1004.7164 -965.8024
ENERGY: 500000 0.0000 0.0000 0.0000 0.0000 -13436.1239 2258.8109 0.0000 0.0000 866.4398 -10310.8731 150.4528 -11177.3129 -10308.8631 150.0409 237.9132 289.0244 28377.3419 3.2879 3.2663
TCL: Running 100000 steps at 180 kelvin.
TCL: Setting parameter langevinTemp to 180
TCL: Running for 100000 steps
ETITLE: TS BOND ANGLE DIHED IMPRP ELECT VDW BOUNDARY MISC KINETIC TOTAL TEMP POTENTIAL TOTAL3 TEMPAVG PRESSURE GPRESSURE VOLUME PRESSAVG GPRESSAVG
ENERGY: 500000 0.0000 0.0000 0.0000 0.0000 -13436.1239 2258.8109 0.0000 0.0000 866.0022 -10311.3107 150.3769 -11177.3129 -10309.7124 150.3769 238.6153 288.8969 28377.3419 238.6153 288.8969
ENERGY: 600000 0.0000 0.0000 0.0000 0.0000 -12936.6636 2083.2378 0.0000 0.0000 1049.9955 -9803.4304 182.3263 -10853.4259 -9800.6101 179.9042 -403.2992 -345.4593 29073.6066 3.7066 3.5367
TCL: Running 100000 steps at 210 kelvin.
TCL: Setting parameter langevinTemp to 210
TCL: Running for 100000 steps
ETITLE: TS BOND ANGLE DIHED IMPRP ELECT VDW BOUNDARY MISC KINETIC TOTAL TEMP POTENTIAL TOTAL3 TEMPAVG PRESSURE GPRESSURE VOLUME PRESSAVG GPRESSAVG
ENERGY: 600000 0.0000 0.0000 0.0000 0.0000 -12936.6636 2083.2378 0.0000 0.0000 1049.4865 -9803.9394 182.2380 -10853.4259 -9802.0974 182.2380 -408.9149 -344.7543 29073.6066 -408.9149 -344.7543
ENERGY: 700000 0.0000 0.0000 0.0000 0.0000 -12224.3266 1852.1479 0.0000 0.0000 1162.0412 -9210.1375 201.7825 -10372.1786 -9208.1511 209.4953 -200.3420 -166.6072 28610.3676 3.5876 3.8364
TCL: Running 100000 steps at 240 kelvin.
TCL: Setting parameter langevinTemp to 240
TCL: Running for 100000 steps
ETITLE: TS BOND ANGLE DIHED IMPRP ELECT VDW BOUNDARY MISC KINETIC TOTAL TEMP POTENTIAL TOTAL3 TEMPAVG PRESSURE GPRESSURE VOLUME PRESSAVG GPRESSAVG
ENERGY: 700000 0.0000 0.0000 0.0000 0.0000 -12224.3266 1852.1479 0.0000 0.0000 1161.4459 -9210.7327 201.6792 -10372.1786 -9208.7919 201.6792 -232.6966 -166.8279 28610.3676 -232.6966 -166.8279
ENERGY: 800000 0.0000 0.0000 0.0000 0.0000 -11601.4867 1647.0033 0.0000 0.0000 1375.2815 -8579.2019 238.8106 -9954.4834 -8577.2396 239.6267 -304.5630 -159.1579 28524.0464 3.7451 3.6312
TCL: Running 100000 steps at 270 kelvin.
TCL: Setting parameter langevinTemp to 270
TCL: Running for 100000 steps
ETITLE: TS BOND ANGLE DIHED IMPRP ELECT VDW BOUNDARY MISC KINETIC TOTAL TEMP POTENTIAL TOTAL3 TEMPAVG PRESSURE GPRESSURE VOLUME PRESSAVG GPRESSAVG
ENERGY: 800000 0.0000 0.0000 0.0000 0.0000 -11601.4867 1647.0033 0.0000 0.0000 1374.5959 -8579.8875 238.6916 -9954.4834 -8577.7104 238.6916 -234.4441 -160.3922 28524.0464 -234.4441 -160.3922
ENERGY: 900000 0.0000 0.0000 0.0000 0.0000 -11118.8068 1567.1379 0.0000 0.0000 1539.0520 -8012.6169 267.2485 -9551.6689 -8008.2688 269.8367 165.2481 283.5341 29101.9672 3.0699 3.0378
TCL: Running 1000000 steps at 300 kelvin.
TCL: Setting parameter langevinTemp to 300
TCL: Running for 1000000 steps
ETITLE: TS BOND ANGLE DIHED IMPRP ELECT VDW BOUNDARY MISC KINETIC TOTAL TEMP POTENTIAL TOTAL3 TEMPAVG PRESSURE GPRESSURE VOLUME PRESSAVG GPRESSAVG
ENERGY: 900000 0.0000 0.0000 0.0000 0.0000 -11118.8068 1567.1379 0.0000 0.0000 1538.2353 -8013.4335 267.1067 -9551.6689 -8011.2902 267.1067 205.6833 285.3515 29101.9672 205.6833 285.3515
ENERGY: 1100000 0.0000 0.0000 0.0000 0.0000 -10532.6445 1334.2910 0.0000 0.0000 1732.8187 -7465.5348 300.8951 -9198.3535 -7463.5273 300.4554 -811.9925 -738.8011 30272.2702 2.7027 2.5211
ENERGY: 1300000 0.0000 0.0000 0.0000 0.0000 -10457.9227 1348.7132 0.0000 0.0000 1699.1987 -7410.0108 295.0572 -9109.2095 -7404.4272 300.1997 -567.8477 -425.4008 30231.0843 4.2307 4.3383
ENERGY: 1500000 0.0000 0.0000 0.0000 0.0000 -10634.0230 1488.9897 0.0000 0.0000 1806.8149 -7338.2184 313.7442 -9145.0333 -7335.3531 300.4566 800.1819 846.3969 29890.9020 3.1875 3.2698
ENERGY: 1700000 0.0000 0.0000 0.0000 0.0000 -10399.8196 1311.8258 0.0000 0.0000 1747.0946 -7340.8992 303.3740 -9087.9937 -7339.9720 300.7366 -792.7474 -669.1461 30403.6473 3.7322 3.6696
ENERGY: 1900000 0.0000 0.0000 0.0000 0.0000 -10614.7256 1495.3241 0.0000 0.0000 1734.7206 -7384.6808 301.2254 -9119.4014 -7381.6680 300.1595 672.3493 717.7960 30092.1160 2.8517 2.8657
TCL: Exiting due to exit command.
