Info: SIMULATION PARAMETERS:
Info: TIMESTEP               2
Info: NUMBER OF STEPS        0
Info: STEPS PER CYCLE        10
Info: PERIODIC CELL BASIS 1  37.435 0 0
Info: PERIODIC CELL BASIS 2  0 34.1 0
Info: PERIODIC CELL BASIS 3  0 0 34.229
Info: PERIODIC CELL CENTER   0 0 0
Info: WRAPPING WATERS AROUND PERIODIC BOUNDARIES ON OUTPUT.
Info: WRAPPING ALL CLUSTERS AROUND PERIODIC BOUNDARIES ON OUTPUT.
Info: FIRST LDB TIMESTEP     50
Info: LAST LDB TIMESTEP     -1
Info: HOM BACKGROUND SCALING 1
Info: PME BACKGROUND SCALING 1
Info: MIN ATOMS PER PATCH    40
Info: EMPTY PATCH LOAD       40 ATOMS
Info: INITIAL TEMPERATURE    300
Info: CENTER OF MASS MOVING INITIALLY? NO
Info: DIELECTRIC             1
Info: EXCLUDE                SCALED ONE-FOUR
Info: 1-4 ELECTROSTATICS SCALED BY 0.833333
Info: MODIFIED 1-4 VDW PARAMETERS WILL BE USED
Info: DCD FILENAME           mobley_9114381_equil.dcd
Info: DCD FREQUENCY          100000
Info: DCD FIRST STEP         100000
Info: DCD FILE WILL CONTAIN UNIT CELL DATA
Info: XST FILENAME           mobley_9114381_equil.xst
Info: XST FREQUENCY          100000
Info: NO VELOCITY DCD OUTPUT
Info: NO FORCE DCD OUTPUT
Info: OUTPUT FILENAME        mobley_9114381_equil
Info: BINARY OUTPUT FILES WILL BE USED
Info: RESTART FILENAME       mobley_9114381_equil.restart
Info: RESTART FREQUENCY      100000
Info: BINARY RESTART FILES WILL BE USED
Info: CUTOFF                 9
Info: PAIRLIST DISTANCE      11
Info: PAIRLIST SHRINK RATE   0.01
Info: PAIRLIST GROW RATE     0.01
Info: PAIRLIST TRIGGER       0.3
Info: PAIRLISTS PER CYCLE    2
Info: PAIRLISTS ENABLED
Info: MARGIN                 8
Info: HYDROGEN GROUP CUTOFF  2.5
Info: PATCH DIMENSION        21.5
Info: ENERGY OUTPUT STEPS    100000
Info: ENERGY EVALUATION STEPS    100000
Info: OUTPUT ENERGY PRECISION 4
Info: CROSSTERM ENERGY INCLUDED IN DIHEDRAL
Info: TIMING OUTPUT STEPS    1000000
Info: PRESSURE OUTPUT STEPS  100000
Info: FIXED ATOMS ACTIVE
Info: LANGEVIN DYNAMICS ACTIVE
Info: LANGEVIN TEMPERATURE   30
Info: LANGEVIN USING BBK INTEGRATOR
Info: LANGEVIN DAMPING COEFFICIENT IS 1 INVERSE PS
Info: LANGEVIN DYNAMICS APPLIED TO HYDROGENS
Info: LANGEVIN PISTON PRESSURE CONTROL ACTIVE
Info:        TARGET PRESSURE IS 1.01325 BAR
Info:     OSCILLATION PERIOD IS 50 FS
Info:             DECAY TIME IS 25 FS
Info:     PISTON TEMPERATURE IS 300 K
Info:       PRESSURE CONTROL IS GROUP-BASED
Info:    INITIAL STRAIN RATE IS 0 0 0
Info:       CELL FLUCTUATION IS ISOTROPIC
Info: PARTICLE MESH EWALD (PME) ACTIVE
Info: PME TOLERANCE               1e-06
Info: PME EWALD COEFFICIENT       0.348832
Info: PME INTERPOLATION ORDER     4
Info: PME GRID DIMENSIONS         40 36 36
Info: PME MAXIMUM GRID SPACING    1
Info: FULL ELECTROSTATIC EVALUATION FREQUENCY      2
Info: USING VERLET I (r-RESPA) MTS SCHEME.
Info: C1 SPLITTING OF LONG RANGE ELECTROSTATICS
Info: PLACING ATOMS IN PATCHES BY HYDROGEN GROUPS
Info: RIGID BONDS TO HYDROGEN : ALL
Info:         ERROR TOLERANCE : 1e-08
Info:          MAX ITERATIONS : 100
Info: RIGID WATER USING SETTLE ALGORITHM
Info: RANDOM NUMBER SEED     1743900877
Info: USE HYDROGEN BONDS?    NO
Info: Using AMBER format force field!
Info: AMBER PARM FILE        mobley_9114381.prmtop
Info: COORDINATE PDB         mobley_9114381.pdb
Info: Exclusions will be read from PARM file!
Info: SCNB (VDW SCALING)     2
Info: USING ARITHMETIC MEAN TO COMBINE L-J SIGMA PARAMETERS
Info: BINARY COORDINATES     mobley_9114381_min.coor
Info: SUMMARY OF PARAMETERS:
Info: 10 BONDS
Info: 11 ANGLES
Info:   11 HARMONIC
Info:   0 COSINE-BASED
Info: 10 DIHEDRAL
Info: 0 IMPROPER
Info: 0 CROSSTERM
Info: 0 VDW
Info: 55 VDW_PAIRS
Info: 0 NBTHOLE_PAIRS
Info: STRUCTURE SUMMARY:
Info: 2967 ATOMS
Info: 2966 BONDS
Info: 17 ANGLES
Info: 22 DIHEDRALS
Info: 0 IMPROPERS
Info: 0 CROSSTERMS
Info: 2997 EXCLUSIONS
Info: 12 FIXED ATOMS
Info: 2960 RIGID BONDS
Info: 5 RIGID BONDS BETWEEN FIXED ATOMS
Info: 5910 DEGREES OF FREEDOM
Info: 992 HYDROGEN GROUPS
Info: 4 ATOMS IN LARGEST HYDROGEN GROUP
Info: 992 MIGRATION GROUPS
Info: 4 ATOMS IN LARGEST MIGRATION GROUP
Info: 7 HYDROGEN GROUPS WITH ALL ATOMS FIXED
Info: TOTAL MASS = 17844.9 amu
Info: TOTAL CHARGE = -0.000200007 e
Info: MASS DENSITY = 0.678181 g/cm^3
Info: ATOM DENSITY = 0.0679033 atoms/A^3
Info: ADDED 0 IMPLICIT EXCLUSIONS
Info: NONBONDED TABLE R-SQUARED SPACING: 0.0625
Info: NONBONDED TABLE SIZE: 705 POINTS
Info: REMOVING COM VELOCITY -0.115623 0.105497 0.0761013
TCL: Running for 100000 steps
ETITLE: TS BOND ANGLE DIHED IMPRP ELECT VDW BOUNDARY MISC KINETIC TOTAL TEMP POTENTIAL TOTAL3 TEMPAVG PRESSURE GPRESSURE VOLUME PRESSAVG GPRESSAVG
ENERGY: 0 0.0000 0.0000 0.0000 0.0000 -13796.7858 2367.8455 0.0000 0.0000 1810.7626 -9618.1776 308.3645 -11428.9402 -9617.8188 308.3645 53.1614 86.9027 43694.4652 53.1614 86.9027
ENERGY: 100000 0.0000 0.0000 0.0000 0.0000 -14433.2279 2573.1326 0.0000 0.0000 178.0881 -11682.0071 30.3276 -11860.0953 -11681.6209 30.9017 641.0851 668.8890 29865.7379 4.3336 4.3404
TCL: Running 100000 steps at 60 kelvin.
TCL: Setting parameter langevinTemp to 60
TCL: Running for 100000 steps
ETITLE: TS BOND ANGLE DIHED IMPRP ELECT VDW BOUNDARY MISC KINETIC TOTAL TEMP POTENTIAL TOTAL3 TEMPAVG PRESSURE GPRESSURE VOLUME PRESSAVG GPRESSAVG
ENERGY: 100000 0.0000 0.0000 0.0000 0.0000 -14433.2279 2573.1326 0.0000 0.0000 177.9995 -11682.0958 30.3125 -11860.0953 -11681.7948 30.3125 613.4962 668.8148 29865.7379 613.4962 668.8148
ENERGY: 200000 0.0000 0.0000 0.0000 0.0000 -14162.3387 2386.1625 0.0000 0.0000 349.9999 -11426.1763 59.6034 -11776.1761 -11424.8750 60.0870 -467.9353 -393.8703 29421.0905 6.0069 5.9775
TCL: Running 100000 steps at 90 kelvin.
TCL: Setting parameter langevinTemp to 90
TCL: Running for 100000 steps
ETITLE: TS BOND ANGLE DIHED IMPRP ELECT VDW BOUNDARY MISC KINETIC TOTAL TEMP POTENTIAL TOTAL3 TEMPAVG PRESSURE GPRESSURE VOLUME PRESSAVG GPRESSAVG
ENERGY: 200000 0.0000 0.0000 0.0000 0.0000 -14162.3387 2386.1625 0.0000 0.0000 349.8271 -11426.3490 59.5740 -11776.1761 -11425.5325 59.5740 -442.1794 -393.6510 29421.0905 -442.1794 -393.6510
ENERGY: 300000 0.0000 0.0000 0.0000 0.0000 -13971.3632 2269.6705 0.0000 0.0000 521.8118 -11179.8809 88.8621 -11701.6927 -11178.9354 90.0216 -1133.1915 -1035.3038 29325.6188 3.6955 3.7163
TCL: Running 100000 steps at 120 kelvin.
TCL: Setting parameter langevinTemp to 120
TCL: Running for 100000 steps
ETITLE: TS BOND ANGLE DIHED IMPRP ELECT VDW BOUNDARY MISC KINETIC TOTAL TEMP POTENTIAL TOTAL3 TEMPAVG PRESSURE GPRESSURE VOLUME PRESSAVG GPRESSAVG
ENERGY: 300000 0.0000 0.0000 0.0000 0.0000 -13971.3632 2269.6705 0.0000 0.0000 521.5437 -11180.1490 88.8165 -11701.6927 -11179.0763 88.8165 -1106.4626 -1035.8811 29325.6188 -1106.4626 -1035.8811
ENERGY: 400000 0.0000 0.0000 0.0000 0.0000 -14009.8977 2428.3856 0.0000 0.0000 700.2809 -10881.2311 119.2546 -11581.5121 -10880.8262 120.1466 894.3769 907.0482 28654.0609 4.4612 4.2591
TCL: Running 100000 steps at 150 kelvin.
TCL: Setting parameter langevinTemp to 150
TCL: Running for 100000 steps
ETITLE: TS BOND ANGLE DIHED IMPRP ELECT VDW BOUNDARY MISC KINETIC TOTAL TEMP POTENTIAL TOTAL3 TEMPAVG PRESSURE GPRESSURE VOLUME PRESSAVG GPRESSAVG
ENERGY: 400000 0.0000 0.0000 0.0000 0.0000 -14009.8977 2428.3856 0.0000 0.0000 699.9330 -10881.5791 119.1954 -11581.5121 -10880.3962 119.1954 869.1033 906.6380 28654.0609 869.1033 906.6380
ENERGY: 500000 0.0000 0.0000 0.0000 0.0000 -13669.7507 2233.4480 0.0000 0.0000 862.6802 -10573.6226 146.9105 -11436.3028 -10572.0621 149.7967 -312.8111 -254.3458 29014.7979 3.1181 3.1969
TCL: Running 100000 steps at 180 kelvin.
TCL: Setting parameter langevinTemp to 180
TCL: Running for 100000 steps
ETITLE: TS BOND ANGLE DIHED IMPRP ELECT VDW BOUNDARY MISC KINETIC TOTAL TEMP POTENTIAL TOTAL3 TEMPAVG PRESSURE GPRESSURE VOLUME PRESSAVG GPRESSAVG
ENERGY: 500000 0.0000 0.0000 0.0000 0.0000 -13669.7507 2233.4480 0.0000 0.0000 862.2387 -10574.0641 146.8353 -11436.3028 -10572.5179 146.8353 -311.7826 -254.4862 29014.7979 -311.7826 -254.4862
ENERGY: 600000 0.0000 0.0000 0.0000 0.0000 -13181.4694 2072.4538 0.0000 0.0000 1057.0389 -10051.9767 180.0089 -11109.0156 -10049.5647 179.9036 -504.7244 -460.9812 29240.3658 3.8074 3.6639
TCL: Running 100000 steps at 210 kelvin.
TCL: Setting parameter langevinTemp to 210
TCL: Running for 100000 steps
ETITLE: TS BOND ANGLE DIHED IMPRP ELECT VDW BOUNDARY MISC KINETIC TOTAL TEMP POTENTIAL TOTAL3 TEMPAVG PRESSURE GPRESSURE VOLUME PRESSAVG GPRESSAVG
ENERGY: 600000 0.0000 0.0000 0.0000 0.0000 -13181.4694 2072.4538 0.0000 0.0000 1056.5031 -10052.5126 179.9176 -11109.0156 -10050.1353 179.9176 -516.2963 -460.6288 29240.3658 -516.2963 -460.6288
ENERGY: 700000 0.0000 0.0000 0.0000 0.0000 -12729.6565 2077.0254 0.0000 0.0000 1227.3349 -9425.2962 209.0095 -10652.6310 -9423.8137 210.1554 1271.8281 1327.8994 28915.1242 2.9681 3.0883
TCL: Running 100000 steps at 240 kelvin.
TCL: Setting parameter langevinTemp to 240
TCL: Running for 100000 steps
ETITLE: TS BOND ANGLE DIHED IMPRP ELECT VDW BOUNDARY MISC KINETIC TOTAL TEMP POTENTIAL TOTAL3 TEMPAVG PRESSURE GPRESSURE VOLUME PRESSAVG GPRESSAVG
ENERGY: 700000 0.0000 0.0000 0.0000 0.0000 -12729.6565 2077.0254 0.0000 0.0000 1226.7291 -9425.9019 208.9063 -10652.6310 -9424.4423 208.9063 1247.7690 1326.4333 28915.1242 1247.7690 1326.4333
ENERGY: 800000 0.0000 0.0000 0.0000 0.0000 -12019.4924 1771.9163 0.0000 0.0000 1369.3752 -8878.2010 233.1983 -10247.5761 -8874.8536 240.0318 261.9945 296.5081 29274.7025 3.6508 3.7001
TCL: Running 100000 steps at 270 kelvin.
TCL: Setting parameter langevinTemp to 270
TCL: Running for 100000 steps
ETITLE: TS BOND ANGLE DIHED IMPRP ELECT VDW BOUNDARY MISC KINETIC TOTAL TEMP POTENTIAL TOTAL3 TEMPAVG PRESSURE GPRESSURE VOLUME PRESSAVG GPRESSAVG
ENERGY: 800000 0.0000 0.0000 0.0000 0.0000 -12019.4924 1771.9163 0.0000 0.0000 1368.6361 -8878.9401 233.0724 -10247.5761 -8876.3904 233.0724 213.8174 296.9790 29274.7025 213.8174 296.9790
ENERGY: 900000 0.0000 0.0000 0.0000 0.0000 -11186.3662 1505.5755 0.0000 0.0000 1585.7911 -8094.9996 270.0529 -9680.7907 -8089.0705 269.8986 -263.3486 -137.2035 29941.2369 3.3480 3.4649
TCL: Running 1000000 steps at 300 kelvin.
TCL: Setting parameter langevinTemp to 300
TCL: Running for 1000000 steps
ETITLE: TS BOND ANGLE DIHED IMPRP ELECT VDW BOUNDARY MISC KINETIC TOTAL TEMP POTENTIAL TOTAL3 TEMPAVG PRESSURE GPRESSURE VOLUME PRESSAVG GPRESSAVG
ENERGY: 900000 0.0000 0.0000 0.0000 0.0000 -11186.3662 1505.5755 0.0000 0.0000 1585.0042 -8095.7864 269.9189 -9680.7907 -8093.9384 269.9189 -223.4314 -133.3356 29941.2369 -223.4314 -133.3356
ENERGY: 1100000 0.0000 0.0000 0.0000 0.0000 -10805.7390 1396.8183 0.0000 0.0000 1750.5644 -7658.3564 298.1131 -9408.9207 -7654.9840 300.1273 -588.6798 -530.0004 30827.9118 3.5571 3.6974
ENERGY: 1300000 0.0000 0.0000 0.0000 0.0000 -10776.0629 1422.4326 0.0000 0.0000 1743.9403 -7609.6900 296.9850 -9353.6303 -7609.1880 299.9578 2.5138 75.6813 30609.2871 2.9426 3.0508
ENERGY: 1500000 0.0000 0.0000 0.0000 0.0000 -10752.2124 1369.5089 0.0000 0.0000 1803.5895 -7579.1141 307.1430 -9382.7036 -7573.7992 300.9444 -452.6022 -426.6712 30696.0116 2.6611 2.7501
ENERGY: 1700000 0.0000 0.0000 0.0000 0.0000 -10902.3578 1462.3445 0.0000 0.0000 1743.9930 -7696.0203 296.9940 -9440.0133 -7692.0228 300.4723 -52.6301 24.6110 30660.9906 3.4138 3.4784
ENERGY: 1900000 0.0000 0.0000 0.0000 0.0000 -10845.9942 1425.0174 0.0000 0.0000 1816.8753 -7604.1015 309.4055 -9420.9768 -7598.3742 299.9270 -271.8171 -138.2463 30595.4094 4.0507 3.7887
TCL: Exiting due to exit command.
