Info: SIMULATION PARAMETERS:
Info: TIMESTEP               2
Info: NUMBER OF STEPS        0
Info: STEPS PER CYCLE        10
Info: PERIODIC CELL BASIS 1  37.133 0 0
Info: PERIODIC CELL BASIS 2  0 37.796 0
Info: PERIODIC CELL BASIS 3  0 0 31.349
Info: PERIODIC CELL CENTER   0 0 0
Info: WRAPPING WATERS AROUND PERIODIC BOUNDARIES ON OUTPUT.
Info: WRAPPING ALL CLUSTERS AROUND PERIODIC BOUNDARIES ON OUTPUT.
Info: FIRST LDB TIMESTEP     50
Info: LAST LDB TIMESTEP     -1
Info: HOM BACKGROUND SCALING 1
Info: PME BACKGROUND SCALING 1
Info: MIN ATOMS PER PATCH    40
Info: EMPTY PATCH LOAD       40 ATOMS
Info: INITIAL TEMPERATURE    300
Info: CENTER OF MASS MOVING INITIALLY? NO
Info: DIELECTRIC             1
Info: EXCLUDE                SCALED ONE-FOUR
Info: 1-4 ELECTROSTATICS SCALED BY 0.833333
Info: MODIFIED 1-4 VDW PARAMETERS WILL BE USED
Info: DCD FILENAME           mobley_4845722_equil.dcd
Info: DCD FREQUENCY          100000
Info: DCD FIRST STEP         100000
Info: DCD FILE WILL CONTAIN UNIT CELL DATA
Info: XST FILENAME           mobley_4845722_equil.xst
Info: XST FREQUENCY          100000
Info: NO VELOCITY DCD OUTPUT
Info: NO FORCE DCD OUTPUT
Info: OUTPUT FILENAME        mobley_4845722_equil
Info: BINARY OUTPUT FILES WILL BE USED
Info: RESTART FILENAME       mobley_4845722_equil.restart
Info: RESTART FREQUENCY      100000
Info: BINARY RESTART FILES WILL BE USED
Info: CUTOFF                 9
Info: PAIRLIST DISTANCE      11
Info: PAIRLIST SHRINK RATE   0.01
Info: PAIRLIST GROW RATE     0.01
Info: PAIRLIST TRIGGER       0.3
Info: PAIRLISTS PER CYCLE    2
Info: PAIRLISTS ENABLED
Info: MARGIN                 8
Info: HYDROGEN GROUP CUTOFF  2.5
Info: PATCH DIMENSION        21.5
Info: ENERGY OUTPUT STEPS    100000
Info: ENERGY EVALUATION STEPS    100000
Info: OUTPUT ENERGY PRECISION 4
Info: CROSSTERM ENERGY INCLUDED IN DIHEDRAL
Info: TIMING OUTPUT STEPS    1000000
Info: PRESSURE OUTPUT STEPS  100000
Info: FIXED ATOMS ACTIVE
Info: LANGEVIN DYNAMICS ACTIVE
Info: LANGEVIN TEMPERATURE   30
Info: LANGEVIN USING BBK INTEGRATOR
Info: LANGEVIN DAMPING COEFFICIENT IS 1 INVERSE PS
Info: LANGEVIN DYNAMICS APPLIED TO HYDROGENS
Info: LANGEVIN PISTON PRESSURE CONTROL ACTIVE
Info:        TARGET PRESSURE IS 1.01325 BAR
Info:     OSCILLATION PERIOD IS 50 FS
Info:             DECAY TIME IS 25 FS
Info:     PISTON TEMPERATURE IS 300 K
Info:       PRESSURE CONTROL IS GROUP-BASED
Info:    INITIAL STRAIN RATE IS 0 0 0
Info:       CELL FLUCTUATION IS ISOTROPIC
Info: PARTICLE MESH EWALD (PME) ACTIVE
Info: PME TOLERANCE               1e-06
Info: PME EWALD COEFFICIENT       0.348832
Info: PME INTERPOLATION ORDER     4
Info: PME GRID DIMENSIONS         40 40 32
Info: PME MAXIMUM GRID SPACING    1
Info: FULL ELECTROSTATIC EVALUATION FREQUENCY      2
Info: USING VERLET I (r-RESPA) MTS SCHEME.
Info: C1 SPLITTING OF LONG RANGE ELECTROSTATICS
Info: PLACING ATOMS IN PATCHES BY HYDROGEN GROUPS
Info: RIGID BONDS TO HYDROGEN : ALL
Info:         ERROR TOLERANCE : 1e-08
Info:          MAX ITERATIONS : 100
Info: RIGID WATER USING SETTLE ALGORITHM
Info: RANDOM NUMBER SEED     1743721971
Info: USE HYDROGEN BONDS?    NO
Info: Using AMBER format force field!
Info: AMBER PARM FILE        mobley_4845722.prmtop
Info: COORDINATE PDB         mobley_4845722.pdb
Info: Exclusions will be read from PARM file!
Info: SCNB (VDW SCALING)     2
Info: USING ARITHMETIC MEAN TO COMBINE L-J SIGMA PARAMETERS
Info: BINARY COORDINATES     mobley_4845722_min.coor
Info: SUMMARY OF PARAMETERS:
Info: 4 BONDS
Info: 2 ANGLES
Info:   2 HARMONIC
Info:   0 COSINE-BASED
Info: 2 DIHEDRAL
Info: 0 IMPROPER
Info: 0 CROSSTERM
Info: 0 VDW
Info: 10 VDW_PAIRS
Info: 0 NBTHOLE_PAIRS
Info: STRUCTURE SUMMARY:
Info: 2919 ATOMS
Info: 2919 BONDS
Info: 18 ANGLES
Info: 30 DIHEDRALS
Info: 0 IMPROPERS
Info: 0 CROSSTERMS
Info: 2958 EXCLUSIONS
Info: 12 FIXED ATOMS
Info: 2907 RIGID BONDS
Info: 0 RIGID BONDS BETWEEN FIXED ATOMS
Info: 5814 DEGREES OF FREEDOM
Info: 981 HYDROGEN GROUPS
Info: 3 ATOMS IN LARGEST HYDROGEN GROUP
Info: 981 MIGRATION GROUPS
Info: 3 ATOMS IN LARGEST MIGRATION GROUP
Info: 12 HYDROGEN GROUPS WITH ALL ATOMS FIXED
Info: TOTAL MASS = 17742.3 amu
Info: TOTAL CHARGE = -9.99998e-05 e
Info: MASS DENSITY = 0.669636 g/cm^3
Info: ATOM DENSITY = 0.0663444 atoms/A^3
Info: ADDED 0 IMPLICIT EXCLUSIONS
Info: NONBONDED TABLE R-SQUARED SPACING: 0.0625
Info: NONBONDED TABLE SIZE: 705 POINTS
Info: REMOVING COM VELOCITY -0.178407 -0.015993 0.01742
TCL: Running for 100000 steps
ETITLE: TS BOND ANGLE DIHED IMPRP ELECT VDW BOUNDARY MISC KINETIC TOTAL TEMP POTENTIAL TOTAL3 TEMPAVG PRESSURE GPRESSURE VOLUME PRESSAVG GPRESSAVG
ENERGY: 0 0.0000 0.0000 0.0000 0.0000 -13527.2115 2371.7712 0.0000 0.0000 1730.0684 -9425.3719 299.4874 -11155.4403 -9425.0518 299.4874 300.7305 327.9177 43997.6590 300.7305 327.9177
ENERGY: 100000 0.0000 0.0000 0.0000 0.0000 -14155.5545 2537.9673 0.0000 0.0000 173.9457 -11443.6415 30.1113 -11617.5872 -11443.2972 30.8668 657.5406 719.3435 29003.5618 4.3424 4.3634
TCL: Running 100000 steps at 60 kelvin.
TCL: Setting parameter langevinTemp to 60
TCL: Running for 100000 steps
ETITLE: TS BOND ANGLE DIHED IMPRP ELECT VDW BOUNDARY MISC KINETIC TOTAL TEMP POTENTIAL TOTAL3 TEMPAVG PRESSURE GPRESSURE VOLUME PRESSAVG GPRESSAVG
ENERGY: 100000 0.0000 0.0000 0.0000 0.0000 -14155.5545 2537.9673 0.0000 0.0000 173.8576 -11443.7296 30.0960 -11617.5872 -11443.4392 30.0960 661.0199 719.4034 29003.5618 661.0199 719.4034
ENERGY: 200000 0.0000 0.0000 0.0000 0.0000 -14077.0547 2514.8846 0.0000 0.0000 336.3209 -11225.8492 58.2196 -11562.1701 -11225.3821 59.9956 740.2062 789.6885 28772.1471 2.9743 2.8675
TCL: Running 100000 steps at 90 kelvin.
TCL: Setting parameter langevinTemp to 90
TCL: Running for 100000 steps
ETITLE: TS BOND ANGLE DIHED IMPRP ELECT VDW BOUNDARY MISC KINETIC TOTAL TEMP POTENTIAL TOTAL3 TEMPAVG PRESSURE GPRESSURE VOLUME PRESSAVG GPRESSAVG
ENERGY: 200000 0.0000 0.0000 0.0000 0.0000 -14077.0547 2514.8846 0.0000 0.0000 336.1495 -11226.0207 58.1899 -11562.1701 -11225.3117 58.1899 729.7647 789.2766 28772.1471 729.7647 789.2766
ENERGY: 300000 0.0000 0.0000 0.0000 0.0000 -13824.2964 2378.0032 0.0000 0.0000 528.9265 -10917.3666 91.5610 -11446.2932 -10916.0354 89.9961 44.2098 94.9864 28885.9059 3.3977 3.3952
TCL: Running 100000 steps at 120 kelvin.
TCL: Setting parameter langevinTemp to 120
TCL: Running for 100000 steps
ETITLE: TS BOND ANGLE DIHED IMPRP ELECT VDW BOUNDARY MISC KINETIC TOTAL TEMP POTENTIAL TOTAL3 TEMPAVG PRESSURE GPRESSURE VOLUME PRESSAVG GPRESSAVG
ENERGY: 300000 0.0000 0.0000 0.0000 0.0000 -13824.2964 2378.0032 0.0000 0.0000 528.6612 -10917.6320 91.5151 -11446.2932 -10916.4656 91.5151 37.9847 94.6901 28885.9059 37.9847 94.6901
ENERGY: 400000 0.0000 0.0000 0.0000 0.0000 -13641.1246 2305.2890 0.0000 0.0000 686.3508 -10649.4849 118.8123 -11335.8356 -10646.6367 120.0566 -2.6515 66.1459 28571.1216 4.9311 4.9476
TCL: Running 100000 steps at 150 kelvin.
TCL: Setting parameter langevinTemp to 150
TCL: Running for 100000 steps
ETITLE: TS BOND ANGLE DIHED IMPRP ELECT VDW BOUNDARY MISC KINETIC TOTAL TEMP POTENTIAL TOTAL3 TEMPAVG PRESSURE GPRESSURE VOLUME PRESSAVG GPRESSAVG
ENERGY: 400000 0.0000 0.0000 0.0000 0.0000 -13641.1246 2305.2890 0.0000 0.0000 686.0027 -10649.8329 118.7521 -11335.8356 -10648.2362 118.7521 5.9517 66.7828 28571.1216 5.9517 66.7828
ENERGY: 500000 0.0000 0.0000 0.0000 0.0000 -13392.5725 2247.9501 0.0000 0.0000 872.6038 -10272.0186 151.0541 -11144.6225 -10269.8245 150.2019 150.2509 210.6629 28910.8002 4.2932 4.3353
TCL: Running 100000 steps at 180 kelvin.
TCL: Setting parameter langevinTemp to 180
TCL: Running for 100000 steps
ETITLE: TS BOND ANGLE DIHED IMPRP ELECT VDW BOUNDARY MISC KINETIC TOTAL TEMP POTENTIAL TOTAL3 TEMPAVG PRESSURE GPRESSURE VOLUME PRESSAVG GPRESSAVG
ENERGY: 500000 0.0000 0.0000 0.0000 0.0000 -13392.5725 2247.9501 0.0000 0.0000 872.1684 -10272.4540 150.9787 -11144.6225 -10270.8507 150.9787 153.2828 210.5582 28910.8002 153.2828 210.5582
ENERGY: 600000 0.0000 0.0000 0.0000 0.0000 -12944.0649 2039.6176 0.0000 0.0000 1061.8754 -9842.5718 183.8184 -10904.4473 -9839.7274 180.3441 -385.8107 -310.1453 28634.8812 3.4141 3.4244
TCL: Running 100000 steps at 210 kelvin.
TCL: Setting parameter langevinTemp to 210
TCL: Running for 100000 steps
ETITLE: TS BOND ANGLE DIHED IMPRP ELECT VDW BOUNDARY MISC KINETIC TOTAL TEMP POTENTIAL TOTAL3 TEMPAVG PRESSURE GPRESSURE VOLUME PRESSAVG GPRESSAVG
ENERGY: 600000 0.0000 0.0000 0.0000 0.0000 -12944.0649 2039.6176 0.0000 0.0000 1061.3312 -9843.1160 183.7242 -10904.4473 -9841.2162 183.7242 -383.5599 -311.4511 28634.8812 -383.5599 -311.4511
ENERGY: 700000 0.0000 0.0000 0.0000 0.0000 -12268.5346 1829.1665 0.0000 0.0000 1208.1474 -9231.2207 209.1391 -10439.3681 -9228.7500 210.0031 -630.9650 -559.9593 28994.6841 3.2325 3.4061
TCL: Running 100000 steps at 240 kelvin.
TCL: Setting parameter langevinTemp to 240
TCL: Running for 100000 steps
ETITLE: TS BOND ANGLE DIHED IMPRP ELECT VDW BOUNDARY MISC KINETIC TOTAL TEMP POTENTIAL TOTAL3 TEMPAVG PRESSURE GPRESSURE VOLUME PRESSAVG GPRESSAVG
ENERGY: 700000 0.0000 0.0000 0.0000 0.0000 -12268.5346 1829.1665 0.0000 0.0000 1207.5154 -9231.8526 209.0297 -10439.3681 -9229.5592 209.0297 -638.4907 -561.1104 28994.6841 -638.4907 -561.1104
ENERGY: 800000 0.0000 0.0000 0.0000 0.0000 -11582.5443 1630.0281 0.0000 0.0000 1375.5425 -8576.9737 238.1164 -9952.5162 -8574.0899 239.9123 -459.4634 -420.3300 28933.1223 3.3707 3.4561
TCL: Running 100000 steps at 270 kelvin.
TCL: Setting parameter langevinTemp to 270
TCL: Running for 100000 steps
ETITLE: TS BOND ANGLE DIHED IMPRP ELECT VDW BOUNDARY MISC KINETIC TOTAL TEMP POTENTIAL TOTAL3 TEMPAVG PRESSURE GPRESSURE VOLUME PRESSAVG GPRESSAVG
ENERGY: 800000 0.0000 0.0000 0.0000 0.0000 -11582.5443 1630.0281 0.0000 0.0000 1374.8652 -8577.6510 237.9992 -9952.5162 -8575.1853 237.9992 -484.1670 -420.5880 28933.1223 -484.1670 -420.5880
ENERGY: 900000 0.0000 0.0000 0.0000 0.0000 -10985.2673 1520.0215 0.0000 0.0000 1566.7326 -7898.5131 271.2128 -9465.2458 -7895.8848 270.2583 90.5580 252.3182 29420.1230 3.2694 3.2720
TCL: Running 1000000 steps at 300 kelvin.
TCL: Setting parameter langevinTemp to 300
TCL: Running for 1000000 steps
ETITLE: TS BOND ANGLE DIHED IMPRP ELECT VDW BOUNDARY MISC KINETIC TOTAL TEMP POTENTIAL TOTAL3 TEMPAVG PRESSURE GPRESSURE VOLUME PRESSAVG GPRESSAVG
ENERGY: 900000 0.0000 0.0000 0.0000 0.0000 -10985.2673 1520.0215 0.0000 0.0000 1565.9502 -7899.2955 271.0774 -9465.2458 -7896.9596 271.0774 158.0176 249.7674 29420.1230 158.0176 249.7674
ENERGY: 1100000 0.0000 0.0000 0.0000 0.0000 -10418.2980 1327.8357 0.0000 0.0000 1788.1099 -7302.3525 309.5349 -9090.4623 -7297.2960 300.1775 -486.2133 -389.9735 30438.1862 2.2084 2.3697
ENERGY: 1300000 0.0000 0.0000 0.0000 0.0000 -10393.3207 1314.9979 0.0000 0.0000 1690.2026 -7388.1202 292.5864 -9078.3228 -7384.3897 299.9195 -445.9147 -364.4043 30355.0873 3.5813 3.4557
ENERGY: 1500000 0.0000 0.0000 0.0000 0.0000 -10532.8226 1403.1285 0.0000 0.0000 1728.3450 -7401.3492 299.1891 -9129.6942 -7395.3363 300.0501 55.2001 101.4133 30294.7652 3.6857 3.7532
ENERGY: 1700000 0.0000 0.0000 0.0000 0.0000 -10582.2665 1412.9866 0.0000 0.0000 1756.7126 -7412.5673 304.0997 -9169.2799 -7409.9197 300.4224 23.4848 110.3152 30305.4441 4.9028 4.9420
ENERGY: 1900000 0.0000 0.0000 0.0000 0.0000 -10563.1121 1397.9965 0.0000 0.0000 1703.3560 -7461.7595 294.8633 -9165.1155 -7457.8196 300.5409 -302.8044 -265.2220 30712.8558 2.7693 3.0257
TCL: Exiting due to exit command.
