Info: SIMULATION PARAMETERS:
Info: TIMESTEP               2
Info: NUMBER OF STEPS        0
Info: STEPS PER CYCLE        10
Info: PERIODIC CELL BASIS 1  37.435 0 0
Info: PERIODIC CELL BASIS 2  0 35.779 0
Info: PERIODIC CELL BASIS 3  0 0 31.855
Info: PERIODIC CELL CENTER   0 0 0
Info: WRAPPING WATERS AROUND PERIODIC BOUNDARIES ON OUTPUT.
Info: WRAPPING ALL CLUSTERS AROUND PERIODIC BOUNDARIES ON OUTPUT.
Info: FIRST LDB TIMESTEP     50
Info: LAST LDB TIMESTEP     -1
Info: HOM BACKGROUND SCALING 1
Info: PME BACKGROUND SCALING 1
Info: MIN ATOMS PER PATCH    40
Info: EMPTY PATCH LOAD       40 ATOMS
Info: INITIAL TEMPERATURE    300
Info: CENTER OF MASS MOVING INITIALLY? NO
Info: DIELECTRIC             1
Info: EXCLUDE                SCALED ONE-FOUR
Info: 1-4 ELECTROSTATICS SCALED BY 0.833333
Info: MODIFIED 1-4 VDW PARAMETERS WILL BE USED
Info: DCD FILENAME           mobley_6232400_equil.dcd
Info: DCD FREQUENCY          100000
Info: DCD FIRST STEP         100000
Info: DCD FILE WILL CONTAIN UNIT CELL DATA
Info: XST FILENAME           mobley_6232400_equil.xst
Info: XST FREQUENCY          100000
Info: NO VELOCITY DCD OUTPUT
Info: NO FORCE DCD OUTPUT
Info: OUTPUT FILENAME        mobley_6232400_equil
Info: BINARY OUTPUT FILES WILL BE USED
Info: RESTART FILENAME       mobley_6232400_equil.restart
Info: RESTART FREQUENCY      100000
Info: BINARY RESTART FILES WILL BE USED
Info: CUTOFF                 9
Info: PAIRLIST DISTANCE      11
Info: PAIRLIST SHRINK RATE   0.01
Info: PAIRLIST GROW RATE     0.01
Info: PAIRLIST TRIGGER       0.3
Info: PAIRLISTS PER CYCLE    2
Info: PAIRLISTS ENABLED
Info: MARGIN                 8
Info: HYDROGEN GROUP CUTOFF  2.5
Info: PATCH DIMENSION        21.5
Info: ENERGY OUTPUT STEPS    100000
Info: ENERGY EVALUATION STEPS    100000
Info: OUTPUT ENERGY PRECISION 4
Info: CROSSTERM ENERGY INCLUDED IN DIHEDRAL
Info: TIMING OUTPUT STEPS    1000000
Info: PRESSURE OUTPUT STEPS  100000
Info: FIXED ATOMS ACTIVE
Info: LANGEVIN DYNAMICS ACTIVE
Info: LANGEVIN TEMPERATURE   30
Info: LANGEVIN USING BBK INTEGRATOR
Info: LANGEVIN DAMPING COEFFICIENT IS 1 INVERSE PS
Info: LANGEVIN DYNAMICS APPLIED TO HYDROGENS
Info: LANGEVIN PISTON PRESSURE CONTROL ACTIVE
Info:        TARGET PRESSURE IS 1.01325 BAR
Info:     OSCILLATION PERIOD IS 50 FS
Info:             DECAY TIME IS 25 FS
Info:     PISTON TEMPERATURE IS 300 K
Info:       PRESSURE CONTROL IS GROUP-BASED
Info:    INITIAL STRAIN RATE IS 0 0 0
Info:       CELL FLUCTUATION IS ISOTROPIC
Info: PARTICLE MESH EWALD (PME) ACTIVE
Info: PME TOLERANCE               1e-06
Info: PME EWALD COEFFICIENT       0.348832
Info: PME INTERPOLATION ORDER     4
Info: PME GRID DIMENSIONS         40 36 32
Info: PME MAXIMUM GRID SPACING    1
Info: FULL ELECTROSTATIC EVALUATION FREQUENCY      2
Info: USING VERLET I (r-RESPA) MTS SCHEME.
Info: C1 SPLITTING OF LONG RANGE ELECTROSTATICS
Info: PLACING ATOMS IN PATCHES BY HYDROGEN GROUPS
Info: RIGID BONDS TO HYDROGEN : ALL
Info:         ERROR TOLERANCE : 1e-08
Info:          MAX ITERATIONS : 100
Info: RIGID WATER USING SETTLE ALGORITHM
Info: RANDOM NUMBER SEED     1743900978
Info: USE HYDROGEN BONDS?    NO
Info: Using AMBER format force field!
Info: AMBER PARM FILE        mobley_6232400.prmtop
Info: COORDINATE PDB         mobley_6232400.pdb
Info: Exclusions will be read from PARM file!
Info: SCNB (VDW SCALING)     2
Info: USING ARITHMETIC MEAN TO COMBINE L-J SIGMA PARAMETERS
Info: BINARY COORDINATES     mobley_6232400_min.coor
Info: SUMMARY OF PARAMETERS:
Info: 9 BONDS
Info: 10 ANGLES
Info:   10 HARMONIC
Info:   0 COSINE-BASED
Info: 5 DIHEDRAL
Info: 0 IMPROPER
Info: 0 CROSSTERM
Info: 0 VDW
Info: 28 VDW_PAIRS
Info: 0 NBTHOLE_PAIRS
Info: STRUCTURE SUMMARY:
Info: 2956 ATOMS
Info: 2956 BONDS
Info: 19 ANGLES
Info: 30 DIHEDRALS
Info: 0 IMPROPERS
Info: 0 CROSSTERMS
Info: 2996 EXCLUSIONS
Info: 13 FIXED ATOMS
Info: 2948 RIGID BONDS
Info: 5 RIGID BONDS BETWEEN FIXED ATOMS
Info: 5886 DEGREES OF FREEDOM
Info: 989 HYDROGEN GROUPS
Info: 3 ATOMS IN LARGEST HYDROGEN GROUP
Info: 989 MIGRATION GROUPS
Info: 3 ATOMS IN LARGEST MIGRATION GROUP
Info: 8 HYDROGEN GROUPS WITH ALL ATOMS FIXED
Info: TOTAL MASS = 17780.8 amu
Info: TOTAL CHARGE = -0.000100096 e
Info: MASS DENSITY = 0.692033 g/cm^3
Info: ATOM DENSITY = 0.0692821 atoms/A^3
Info: ADDED 0 IMPLICIT EXCLUSIONS
Info: NONBONDED TABLE R-SQUARED SPACING: 0.0625
Info: NONBONDED TABLE SIZE: 705 POINTS
Info: REMOVING COM VELOCITY 0.00572975 0.273532 0.00929677
TCL: Running for 100000 steps
ETITLE: TS BOND ANGLE DIHED IMPRP ELECT VDW BOUNDARY MISC KINETIC TOTAL TEMP POTENTIAL TOTAL3 TEMPAVG PRESSURE GPRESSURE VOLUME PRESSAVG GPRESSAVG
ENERGY: 0 0.0000 0.0000 0.0000 0.0000 -13790.8298 2350.7547 0.0000 0.0000 1723.9331 -9716.1420 294.7749 -11440.0751 -9715.8042 294.7749 -19.0182 17.5550 42666.1686 -19.0182 17.5550
ENERGY: 100000 0.0000 0.0000 0.0000 0.0000 -14388.5266 2523.5387 0.0000 0.0000 177.6986 -11687.2893 30.3846 -11864.9879 -11686.8209 30.8715 149.0865 176.6241 29783.1708 3.6815 3.6630
TCL: Running 100000 steps at 60 kelvin.
TCL: Setting parameter langevinTemp to 60
TCL: Running for 100000 steps
ETITLE: TS BOND ANGLE DIHED IMPRP ELECT VDW BOUNDARY MISC KINETIC TOTAL TEMP POTENTIAL TOTAL3 TEMPAVG PRESSURE GPRESSURE VOLUME PRESSAVG GPRESSAVG
ENERGY: 100000 0.0000 0.0000 0.0000 0.0000 -14388.5266 2523.5387 0.0000 0.0000 177.6162 -11687.3717 30.3706 -11864.9879 -11686.9730 30.3706 127.2516 176.5845 29783.1708 127.2516 176.5845
ENERGY: 200000 0.0000 0.0000 0.0000 0.0000 -14069.3369 2296.4746 0.0000 0.0000 345.3140 -11427.5483 59.0452 -11772.8623 -11426.7541 60.0227 -1192.6226 -1139.7795 29453.9562 3.3406 3.3451
TCL: Running 100000 steps at 90 kelvin.
TCL: Setting parameter langevinTemp to 90
TCL: Running for 100000 steps
ETITLE: TS BOND ANGLE DIHED IMPRP ELECT VDW BOUNDARY MISC KINETIC TOTAL TEMP POTENTIAL TOTAL3 TEMPAVG PRESSURE GPRESSURE VOLUME PRESSAVG GPRESSAVG
ENERGY: 200000 0.0000 0.0000 0.0000 0.0000 -14069.3369 2296.4746 0.0000 0.0000 345.1322 -11427.7301 59.0141 -11772.8623 -11427.2227 59.0141 -1198.6551 -1139.6763 29453.9562 -1198.6551 -1139.6763
ENERGY: 300000 0.0000 0.0000 0.0000 0.0000 -14086.4048 2397.3101 0.0000 0.0000 528.9686 -11160.1261 90.4482 -11689.0947 -11158.5081 90.0205 83.4786 134.6543 29142.6987 4.5388 4.5703
TCL: Running 100000 steps at 120 kelvin.
TCL: Setting parameter langevinTemp to 120
TCL: Running for 100000 steps
ETITLE: TS BOND ANGLE DIHED IMPRP ELECT VDW BOUNDARY MISC KINETIC TOTAL TEMP POTENTIAL TOTAL3 TEMPAVG PRESSURE GPRESSURE VOLUME PRESSAVG GPRESSAVG
ENERGY: 300000 0.0000 0.0000 0.0000 0.0000 -14086.4048 2397.3101 0.0000 0.0000 528.7091 -11160.3856 90.4038 -11689.0947 -11159.4102 90.4038 85.1606 135.0719 29142.6987 85.1606 135.0719
ENERGY: 400000 0.0000 0.0000 0.0000 0.0000 -13964.6766 2390.6169 0.0000 0.0000 693.8987 -10880.1610 118.6496 -11574.0597 -10878.3514 120.2107 419.2546 461.3803 29094.6753 4.2511 4.1098
TCL: Running 100000 steps at 150 kelvin.
TCL: Setting parameter langevinTemp to 150
TCL: Running for 100000 steps
ETITLE: TS BOND ANGLE DIHED IMPRP ELECT VDW BOUNDARY MISC KINETIC TOTAL TEMP POTENTIAL TOTAL3 TEMPAVG PRESSURE GPRESSURE VOLUME PRESSAVG GPRESSAVG
ENERGY: 400000 0.0000 0.0000 0.0000 0.0000 -13964.6766 2390.6169 0.0000 0.0000 693.5524 -10880.5073 118.5904 -11574.0597 -10879.0215 118.5904 406.8830 460.7466 29094.6753 406.8830 460.7466
ENERGY: 500000 0.0000 0.0000 0.0000 0.0000 -13810.0447 2378.8171 0.0000 0.0000 860.5836 -10570.6440 147.1510 -11431.2276 -10568.6394 150.1191 829.3532 911.5151 28903.7951 4.8979 4.9733
TCL: Running 100000 steps at 180 kelvin.
TCL: Setting parameter langevinTemp to 180
TCL: Running for 100000 steps
ETITLE: TS BOND ANGLE DIHED IMPRP ELECT VDW BOUNDARY MISC KINETIC TOTAL TEMP POTENTIAL TOTAL3 TEMPAVG PRESSURE GPRESSURE VOLUME PRESSAVG GPRESSAVG
ENERGY: 500000 0.0000 0.0000 0.0000 0.0000 -13810.0447 2378.8171 0.0000 0.0000 860.1207 -10571.1070 147.0718 -11431.2276 -10569.1687 147.0718 857.6858 911.7596 28903.7951 857.6858 911.7596
ENERGY: 600000 0.0000 0.0000 0.0000 0.0000 -13207.4007 2078.4651 0.0000 0.0000 1043.0507 -10085.8849 178.3510 -11128.9356 -10083.2881 179.8939 -438.8434 -373.9858 29077.2539 4.6457 4.7087
TCL: Running 100000 steps at 210 kelvin.
TCL: Setting parameter langevinTemp to 210
TCL: Running for 100000 steps
ETITLE: TS BOND ANGLE DIHED IMPRP ELECT VDW BOUNDARY MISC KINETIC TOTAL TEMP POTENTIAL TOTAL3 TEMPAVG PRESSURE GPRESSURE VOLUME PRESSAVG GPRESSAVG
ENERGY: 600000 0.0000 0.0000 0.0000 0.0000 -13207.4007 2078.4651 0.0000 0.0000 1042.5201 -10086.4154 178.2603 -11128.9356 -10084.1961 178.2603 -443.3058 -374.2196 29077.2539 -443.3058 -374.2196
ENERGY: 700000 0.0000 0.0000 0.0000 0.0000 -12628.5673 1958.1144 0.0000 0.0000 1206.8105 -9463.6424 206.3523 -10670.4529 -9459.8427 210.1207 459.8924 616.7492 28603.0963 3.3339 3.2044
TCL: Running 100000 steps at 240 kelvin.
TCL: Setting parameter langevinTemp to 240
TCL: Running for 100000 steps
ETITLE: TS BOND ANGLE DIHED IMPRP ELECT VDW BOUNDARY MISC KINETIC TOTAL TEMP POTENTIAL TOTAL3 TEMPAVG PRESSURE GPRESSURE VOLUME PRESSAVG GPRESSAVG
ENERGY: 700000 0.0000 0.0000 0.0000 0.0000 -12628.5673 1958.1144 0.0000 0.0000 1206.2052 -9464.2477 206.2488 -10670.4529 -9462.3567 206.2488 528.4960 619.3730 28603.0963 528.4960 619.3730
ENERGY: 800000 0.0000 0.0000 0.0000 0.0000 -11914.5157 1728.4243 0.0000 0.0000 1376.4030 -8809.6883 235.3508 -10186.0914 -8809.6185 240.1108 362.8269 445.9366 28918.4827 4.9900 5.0264
TCL: Running 100000 steps at 270 kelvin.
TCL: Setting parameter langevinTemp to 270
TCL: Running for 100000 steps
ETITLE: TS BOND ANGLE DIHED IMPRP ELECT VDW BOUNDARY MISC KINETIC TOTAL TEMP POTENTIAL TOTAL3 TEMPAVG PRESSURE GPRESSURE VOLUME PRESSAVG GPRESSAVG
ENERGY: 800000 0.0000 0.0000 0.0000 0.0000 -11914.5157 1728.4243 0.0000 0.0000 1375.7207 -8810.3707 235.2342 -10186.0914 -8808.5127 235.2342 347.0186 443.0852 28918.4827 347.0186 443.0852
ENERGY: 900000 0.0000 0.0000 0.0000 0.0000 -11272.9556 1517.2493 0.0000 0.0000 1556.0861 -8199.6202 266.0748 -9755.7063 -8195.1830 270.1721 -270.1161 -101.0797 29556.5651 1.9616 1.9859
TCL: Running 1000000 steps at 300 kelvin.
TCL: Setting parameter langevinTemp to 300
TCL: Running for 1000000 steps
ETITLE: TS BOND ANGLE DIHED IMPRP ELECT VDW BOUNDARY MISC KINETIC TOTAL TEMP POTENTIAL TOTAL3 TEMPAVG PRESSURE GPRESSURE VOLUME PRESSAVG GPRESSAVG
ENERGY: 900000 0.0000 0.0000 0.0000 0.0000 -11272.9556 1517.2493 0.0000 0.0000 1555.3306 -8200.3757 265.9456 -9755.7063 -8198.3722 265.9456 -196.9075 -100.2230 29556.5651 -196.9075 -100.2230
ENERGY: 1100000 0.0000 0.0000 0.0000 0.0000 -10783.2580 1449.0029 0.0000 0.0000 1812.6641 -7521.5910 309.9470 -9334.2551 -7520.1959 301.0312 227.2016 269.5810 30569.6067 3.2711 3.1979
ENERGY: 1300000 0.0000 0.0000 0.0000 0.0000 -10961.4146 1525.1661 0.0000 0.0000 1733.4288 -7702.8197 296.3986 -9436.2485 -7697.8437 299.8600 609.6793 674.3871 30431.9595 4.3588 4.1947
ENERGY: 1500000 0.0000 0.0000 0.0000 0.0000 -10816.3596 1421.5054 0.0000 0.0000 1779.7699 -7615.0843 304.3224 -9394.8542 -7612.5996 300.1895 -126.6867 -43.0958 30581.2156 1.7623 1.5904
ENERGY: 1700000 0.0000 0.0000 0.0000 0.0000 -10777.2708 1351.9536 0.0000 0.0000 1702.1059 -7723.2112 291.0427 -9425.3171 -7719.7373 299.9539 -764.2720 -767.7882 30502.5493 2.2235 2.3907
ENERGY: 1900000 0.0000 0.0000 0.0000 0.0000 -10763.5287 1427.1184 0.0000 0.0000 1700.6788 -7635.7314 290.7987 -9336.4102 -7633.1519 300.4113 -179.0325 -98.8446 30759.1614 2.5508 2.4793
TCL: Exiting due to exit command.
