Info: SIMULATION PARAMETERS:
Info: TIMESTEP               2
Info: NUMBER OF STEPS        0
Info: STEPS PER CYCLE        10
Info: PERIODIC CELL BASIS 1  37.968 0 0
Info: PERIODIC CELL BASIS 2  0 35.411 0
Info: PERIODIC CELL BASIS 3  0 0 31.855
Info: PERIODIC CELL CENTER   0 0 0
Info: WRAPPING WATERS AROUND PERIODIC BOUNDARIES ON OUTPUT.
Info: WRAPPING ALL CLUSTERS AROUND PERIODIC BOUNDARIES ON OUTPUT.
Info: FIRST LDB TIMESTEP     50
Info: LAST LDB TIMESTEP     -1
Info: HOM BACKGROUND SCALING 1
Info: PME BACKGROUND SCALING 1
Info: MIN ATOMS PER PATCH    40
Info: EMPTY PATCH LOAD       40 ATOMS
Info: INITIAL TEMPERATURE    300
Info: CENTER OF MASS MOVING INITIALLY? NO
Info: DIELECTRIC             1
Info: EXCLUDE                SCALED ONE-FOUR
Info: 1-4 ELECTROSTATICS SCALED BY 0.833333
Info: MODIFIED 1-4 VDW PARAMETERS WILL BE USED
Info: DCD FILENAME           mobley_7497999_equil.dcd
Info: DCD FREQUENCY          100000
Info: DCD FIRST STEP         100000
Info: DCD FILE WILL CONTAIN UNIT CELL DATA
Info: XST FILENAME           mobley_7497999_equil.xst
Info: XST FREQUENCY          100000
Info: NO VELOCITY DCD OUTPUT
Info: NO FORCE DCD OUTPUT
Info: OUTPUT FILENAME        mobley_7497999_equil
Info: BINARY OUTPUT FILES WILL BE USED
Info: RESTART FILENAME       mobley_7497999_equil.restart
Info: RESTART FREQUENCY      100000
Info: BINARY RESTART FILES WILL BE USED
Info: CUTOFF                 9
Info: PAIRLIST DISTANCE      11
Info: PAIRLIST SHRINK RATE   0.01
Info: PAIRLIST GROW RATE     0.01
Info: PAIRLIST TRIGGER       0.3
Info: PAIRLISTS PER CYCLE    2
Info: PAIRLISTS ENABLED
Info: MARGIN                 8
Info: HYDROGEN GROUP CUTOFF  2.5
Info: PATCH DIMENSION        21.5
Info: ENERGY OUTPUT STEPS    100000
Info: ENERGY EVALUATION STEPS    100000
Info: OUTPUT ENERGY PRECISION 4
Info: CROSSTERM ENERGY INCLUDED IN DIHEDRAL
Info: TIMING OUTPUT STEPS    1000000
Info: PRESSURE OUTPUT STEPS  100000
Info: FIXED ATOMS ACTIVE
Info: LANGEVIN DYNAMICS ACTIVE
Info: LANGEVIN TEMPERATURE   30
Info: LANGEVIN USING BBK INTEGRATOR
Info: LANGEVIN DAMPING COEFFICIENT IS 1 INVERSE PS
Info: LANGEVIN DYNAMICS APPLIED TO HYDROGENS
Info: LANGEVIN PISTON PRESSURE CONTROL ACTIVE
Info:        TARGET PRESSURE IS 1.01325 BAR
Info:     OSCILLATION PERIOD IS 50 FS
Info:             DECAY TIME IS 25 FS
Info:     PISTON TEMPERATURE IS 300 K
Info:       PRESSURE CONTROL IS GROUP-BASED
Info:    INITIAL STRAIN RATE IS 0 0 0
Info:       CELL FLUCTUATION IS ISOTROPIC
Info: PARTICLE MESH EWALD (PME) ACTIVE
Info: PME TOLERANCE               1e-06
Info: PME EWALD COEFFICIENT       0.348832
Info: PME INTERPOLATION ORDER     4
Info: PME GRID DIMENSIONS         40 36 32
Info: PME MAXIMUM GRID SPACING    1
Info: FULL ELECTROSTATIC EVALUATION FREQUENCY      2
Info: USING VERLET I (r-RESPA) MTS SCHEME.
Info: C1 SPLITTING OF LONG RANGE ELECTROSTATICS
Info: PLACING ATOMS IN PATCHES BY HYDROGEN GROUPS
Info: RIGID BONDS TO HYDROGEN : ALL
Info:         ERROR TOLERANCE : 1e-08
Info:          MAX ITERATIONS : 100
Info: RIGID WATER USING SETTLE ALGORITHM
Info: RANDOM NUMBER SEED     1744087745
Info: USE HYDROGEN BONDS?    NO
Info: Using AMBER format force field!
Info: AMBER PARM FILE        mobley_7497999.prmtop
Info: COORDINATE PDB         mobley_7497999.pdb
Info: Exclusions will be read from PARM file!
Info: SCNB (VDW SCALING)     2
Info: USING ARITHMETIC MEAN TO COMBINE L-J SIGMA PARAMETERS
Info: BINARY COORDINATES     mobley_7497999_min.coor
Info: SUMMARY OF PARAMETERS:
Info: 8 BONDS
Info: 8 ANGLES
Info: 8 DIHEDRAL
Info: 0 IMPROPER
Info: 0 CROSSTERM
Info: 0 VDW
Info: 28 VDW_PAIRS
Info: 0 NBTHOLE_PAIRS
Info: STRUCTURE SUMMARY:
Info: 2948 ATOMS
Info: 2948 BONDS
Info: 27 ANGLES
Info: 47 DIHEDRALS
Info: 0 IMPROPERS
Info: 0 CROSSTERMS
Info: 3006 EXCLUSIONS
Info: 17 FIXED ATOMS
Info: 2939 RIGID BONDS
Info: 8 RIGID BONDS BETWEEN FIXED ATOMS
Info: 5862 DEGREES OF FREEDOM
Info: 986 HYDROGEN GROUPS
Info: 4 ATOMS IN LARGEST HYDROGEN GROUP
Info: 986 MIGRATION GROUPS
Info: 4 ATOMS IN LARGEST MIGRATION GROUP
Info: 9 HYDROGEN GROUPS WITH ALL ATOMS FIXED
Info: TOTAL MASS = 17721.8 amu
Info: TOTAL CHARGE = 9.99868e-05 e
Info: MASS DENSITY = 0.687121 g/cm^3
Info: ATOM DENSITY = 0.0688326 atoms/A^3
Info: ADDED 0 IMPLICIT EXCLUSIONS
Info: NONBONDED TABLE R-SQUARED SPACING: 0.0625
Info: NONBONDED TABLE SIZE: 705 POINTS
Info: REMOVING COM VELOCITY -0.0725453 -0.136074 -0.223516
TCL: Running for 100000 steps
ETITLE: TS BOND ANGLE DIHED IMPRP ELECT VDW BOUNDARY MISC KINETIC TOTAL TEMP POTENTIAL TOTAL3 TEMPAVG PRESSURE GPRESSURE VOLUME PRESSAVG GPRESSAVG
ENERGY: 0 0.0000 0.0000 0.0000 0.0000 -13759.0196 2391.2284 0.0000 0.0000 1761.0774 -9606.7138 302.3591 -11367.7912 -9606.3759 302.3591 350.6453 384.2840 42828.5648 350.6453 384.2840
ENERGY: 100000 0.0000 0.0000 0.0000 0.0000 -14170.5507 2391.3145 0.0000 0.0000 174.7423 -11604.4938 30.0015 -11779.2362 -11603.9696 30.9065 -675.9785 -618.4924 28871.4192 4.6615 4.7260
TCL: Running 100000 steps at 60 kelvin.
TCL: Setting parameter langevinTemp to 60
TCL: Running for 100000 steps
ETITLE: TS BOND ANGLE DIHED IMPRP ELECT VDW BOUNDARY MISC KINETIC TOTAL TEMP POTENTIAL TOTAL3 TEMPAVG PRESSURE GPRESSURE VOLUME PRESSAVG GPRESSAVG
ENERGY: 100000 0.0000 0.0000 0.0000 0.0000 -14170.5507 2391.3145 0.0000 0.0000 174.6547 -11604.5815 29.9864 -11779.2362 -11604.2030 29.9864 -671.9523 -618.3842 28871.4192 -671.9523 -618.3842
ENERGY: 200000 0.0000 0.0000 0.0000 0.0000 -14023.7701 2323.2440 0.0000 0.0000 353.9700 -11346.5561 60.7731 -11700.5261 -11345.9061 60.0256 -818.8922 -756.5617 28855.5802 3.5194 3.4564
TCL: Running 100000 steps at 90 kelvin.
TCL: Setting parameter langevinTemp to 90
TCL: Running for 100000 steps
ETITLE: TS BOND ANGLE DIHED IMPRP ELECT VDW BOUNDARY MISC KINETIC TOTAL TEMP POTENTIAL TOTAL3 TEMPAVG PRESSURE GPRESSURE VOLUME PRESSAVG GPRESSAVG
ENERGY: 200000 0.0000 0.0000 0.0000 0.0000 -14023.7701 2323.2440 0.0000 0.0000 353.7977 -11346.7284 60.7435 -11700.5261 -11345.9442 60.7435 -806.7218 -756.5593 28855.5802 -806.7218 -756.5593
ENERGY: 300000 0.0000 0.0000 0.0000 0.0000 -13988.4940 2379.6944 0.0000 0.0000 526.1459 -11082.6537 90.3339 -11608.7996 -11080.7850 89.8917 29.1079 70.0646 28687.7703 3.9377 3.9987
TCL: Running 100000 steps at 120 kelvin.
TCL: Setting parameter langevinTemp to 120
TCL: Running for 100000 steps
ETITLE: TS BOND ANGLE DIHED IMPRP ELECT VDW BOUNDARY MISC KINETIC TOTAL TEMP POTENTIAL TOTAL3 TEMPAVG PRESSURE GPRESSURE VOLUME PRESSAVG GPRESSAVG
ENERGY: 300000 0.0000 0.0000 0.0000 0.0000 -13988.4940 2379.6944 0.0000 0.0000 525.8808 -11082.9188 90.2884 -11608.7996 -11081.8075 90.2884 23.2023 70.5278 28687.7703 23.2023 70.5278
ENERGY: 400000 0.0000 0.0000 0.0000 0.0000 -14008.4420 2509.1242 0.0000 0.0000 698.2149 -10801.1029 119.8764 -11499.3178 -10799.1871 120.0255 1353.7123 1459.7153 28836.9187 4.1072 4.2619
TCL: Running 100000 steps at 150 kelvin.
TCL: Setting parameter langevinTemp to 150
TCL: Running for 100000 steps
ETITLE: TS BOND ANGLE DIHED IMPRP ELECT VDW BOUNDARY MISC KINETIC TOTAL TEMP POTENTIAL TOTAL3 TEMPAVG PRESSURE GPRESSURE VOLUME PRESSAVG GPRESSAVG
ENERGY: 400000 0.0000 0.0000 0.0000 0.0000 -14008.4420 2509.1242 0.0000 0.0000 697.8622 -10801.4557 119.8158 -11499.3178 -10800.0540 119.8158 1405.6675 1460.0358 28836.9187 1405.6675 1460.0358
ENERGY: 500000 0.0000 0.0000 0.0000 0.0000 -13545.9182 2279.4188 0.0000 0.0000 854.7060 -10411.7934 146.7443 -11266.4994 -10408.5204 149.6836 234.5218 275.1511 29190.4007 3.6924 3.5597
TCL: Running 100000 steps at 180 kelvin.
TCL: Setting parameter langevinTemp to 180
TCL: Running for 100000 steps
ETITLE: TS BOND ANGLE DIHED IMPRP ELECT VDW BOUNDARY MISC KINETIC TOTAL TEMP POTENTIAL TOTAL3 TEMPAVG PRESSURE GPRESSURE VOLUME PRESSAVG GPRESSAVG
ENERGY: 500000 0.0000 0.0000 0.0000 0.0000 -13545.9182 2279.4188 0.0000 0.0000 854.2641 -10412.2352 146.6685 -11266.4994 -10410.6715 146.6685 230.9470 275.7443 29190.4007 230.9470 275.7443
ENERGY: 600000 0.0000 0.0000 0.0000 0.0000 -13173.5458 2149.2542 0.0000 0.0000 1039.4978 -9984.7938 178.4712 -11024.2916 -9982.0507 180.2430 320.8174 391.9066 28684.8143 5.7584 5.7475
TCL: Running 100000 steps at 210 kelvin.
TCL: Setting parameter langevinTemp to 210
TCL: Running for 100000 steps
ETITLE: TS BOND ANGLE DIHED IMPRP ELECT VDW BOUNDARY MISC KINETIC TOTAL TEMP POTENTIAL TOTAL3 TEMPAVG PRESSURE GPRESSURE VOLUME PRESSAVG GPRESSAVG
ENERGY: 600000 0.0000 0.0000 0.0000 0.0000 -13173.5458 2149.2542 0.0000 0.0000 1038.9597 -9985.3319 178.3788 -11024.2916 -9983.6300 178.3788 334.7754 391.7788 28684.8143 334.7754 391.7788
ENERGY: 700000 0.0000 0.0000 0.0000 0.0000 -12285.7393 1783.8107 0.0000 0.0000 1239.3897 -9262.5389 212.7906 -10501.9286 -9259.2013 210.0903 -546.3973 -419.9975 28516.6766 4.6990 4.9284
TCL: Running 100000 steps at 240 kelvin.
TCL: Setting parameter langevinTemp to 240
TCL: Running for 100000 steps
ETITLE: TS BOND ANGLE DIHED IMPRP ELECT VDW BOUNDARY MISC KINETIC TOTAL TEMP POTENTIAL TOTAL3 TEMPAVG PRESSURE GPRESSURE VOLUME PRESSAVG GPRESSAVG
ENERGY: 700000 0.0000 0.0000 0.0000 0.0000 -12285.7393 1783.8107 0.0000 0.0000 1238.7959 -9263.1327 212.6887 -10501.9286 -9261.3372 212.6887 -500.0199 -418.0969 28516.6766 -500.0199 -418.0969
ENERGY: 800000 0.0000 0.0000 0.0000 0.0000 -11890.9280 1730.4960 0.0000 0.0000 1398.1205 -8762.3115 240.0431 -10160.4320 -8760.3609 240.0616 134.9458 235.3585 28797.3720 3.9638 4.0420
TCL: Running 100000 steps at 270 kelvin.
TCL: Setting parameter langevinTemp to 270
TCL: Running for 100000 steps
ETITLE: TS BOND ANGLE DIHED IMPRP ELECT VDW BOUNDARY MISC KINETIC TOTAL TEMP POTENTIAL TOTAL3 TEMPAVG PRESSURE GPRESSURE VOLUME PRESSAVG GPRESSAVG
ENERGY: 800000 0.0000 0.0000 0.0000 0.0000 -11890.9280 1730.4960 0.0000 0.0000 1397.4204 -8763.0117 239.9229 -10160.4320 -8760.7259 239.9229 162.9059 234.4573 28797.3720 162.9059 234.4573
ENERGY: 900000 0.0000 0.0000 0.0000 0.0000 -11250.6896 1494.6928 0.0000 0.0000 1569.9305 -8186.0663 269.5411 -9755.9968 -8181.0181 270.3444 -484.7088 -400.3979 29252.6888 2.9396 2.9167
TCL: Running 1000000 steps at 300 kelvin.
TCL: Setting parameter langevinTemp to 300
TCL: Running for 1000000 steps
ETITLE: TS BOND ANGLE DIHED IMPRP ELECT VDW BOUNDARY MISC KINETIC TOTAL TEMP POTENTIAL TOTAL3 TEMPAVG PRESSURE GPRESSURE VOLUME PRESSAVG GPRESSAVG
ENERGY: 900000 0.0000 0.0000 0.0000 0.0000 -11250.6896 1494.6928 0.0000 0.0000 1569.1171 -8186.8797 269.4014 -9755.9968 -8184.6492 269.4014 -483.2231 -398.2817 29252.6888 -483.2231 -398.2817
ENERGY: 1100000 0.0000 0.0000 0.0000 0.0000 -10762.7350 1417.9385 0.0000 0.0000 1758.5985 -7586.1980 301.9335 -9344.7965 -7582.5498 299.8856 -283.5194 -180.6013 30437.9827 3.3162 3.2444
ENERGY: 1300000 0.0000 0.0000 0.0000 0.0000 -10793.8247 1449.7124 0.0000 0.0000 1768.5197 -7575.5926 303.6368 -9344.1123 -7572.2956 300.8519 38.7087 55.8043 30477.6799 1.4763 1.6085
ENERGY: 1500000 0.0000 0.0000 0.0000 0.0000 -10785.5453 1425.5261 0.0000 0.0000 1742.6123 -7617.4069 299.1888 -9360.0192 -7612.8960 300.0065 -132.6197 -74.3858 30245.7169 3.5294 3.2759
ENERGY: 1700000 0.0000 0.0000 0.0000 0.0000 -10626.7234 1377.7383 0.0000 0.0000 1788.3305 -7460.6547 307.0382 -9248.9852 -7456.6197 301.0553 -354.5427 -241.7165 30720.5854 2.7747 2.7709
ENERGY: 1900000 0.0000 0.0000 0.0000 0.0000 -10788.7148 1452.1527 0.0000 0.0000 1809.9532 -7526.6089 310.7506 -9336.5621 -7522.2144 299.8622 324.2257 428.5897 30108.5556 2.6113 2.6348
TCL: Exiting due to exit command.
