Info: SIMULATION PARAMETERS:
Info: TIMESTEP               2
Info: NUMBER OF STEPS        0
Info: STEPS PER CYCLE        10
Info: PERIODIC CELL BASIS 1  36.592 0 0
Info: PERIODIC CELL BASIS 2  0 35.411 0
Info: PERIODIC CELL BASIS 3  0 0 33.876
Info: PERIODIC CELL CENTER   0 0 0
Info: WRAPPING WATERS AROUND PERIODIC BOUNDARIES ON OUTPUT.
Info: WRAPPING ALL CLUSTERS AROUND PERIODIC BOUNDARIES ON OUTPUT.
Info: FIRST LDB TIMESTEP     50
Info: LAST LDB TIMESTEP     -1
Info: HOM BACKGROUND SCALING 1
Info: PME BACKGROUND SCALING 1
Info: MIN ATOMS PER PATCH    40
Info: EMPTY PATCH LOAD       40 ATOMS
Info: INITIAL TEMPERATURE    300
Info: CENTER OF MASS MOVING INITIALLY? NO
Info: DIELECTRIC             1
Info: EXCLUDE                SCALED ONE-FOUR
Info: 1-4 ELECTROSTATICS SCALED BY 0.833333
Info: MODIFIED 1-4 VDW PARAMETERS WILL BE USED
Info: DCD FILENAME           mobley_6571751_equil.dcd
Info: DCD FREQUENCY          100000
Info: DCD FIRST STEP         100000
Info: DCD FILE WILL CONTAIN UNIT CELL DATA
Info: XST FILENAME           mobley_6571751_equil.xst
Info: XST FREQUENCY          100000
Info: NO VELOCITY DCD OUTPUT
Info: NO FORCE DCD OUTPUT
Info: OUTPUT FILENAME        mobley_6571751_equil
Info: BINARY OUTPUT FILES WILL BE USED
Info: RESTART FILENAME       mobley_6571751_equil.restart
Info: RESTART FREQUENCY      100000
Info: BINARY RESTART FILES WILL BE USED
Info: CUTOFF                 9
Info: PAIRLIST DISTANCE      11
Info: PAIRLIST SHRINK RATE   0.01
Info: PAIRLIST GROW RATE     0.01
Info: PAIRLIST TRIGGER       0.3
Info: PAIRLISTS PER CYCLE    2
Info: PAIRLISTS ENABLED
Info: MARGIN                 8
Info: HYDROGEN GROUP CUTOFF  2.5
Info: PATCH DIMENSION        21.5
Info: ENERGY OUTPUT STEPS    100000
Info: ENERGY EVALUATION STEPS    100000
Info: OUTPUT ENERGY PRECISION 4
Info: CROSSTERM ENERGY INCLUDED IN DIHEDRAL
Info: TIMING OUTPUT STEPS    1000000
Info: PRESSURE OUTPUT STEPS  100000
Info: FIXED ATOMS ACTIVE
Info: LANGEVIN DYNAMICS ACTIVE
Info: LANGEVIN TEMPERATURE   30
Info: LANGEVIN USING BBK INTEGRATOR
Info: LANGEVIN DAMPING COEFFICIENT IS 1 INVERSE PS
Info: LANGEVIN DYNAMICS APPLIED TO HYDROGENS
Info: LANGEVIN PISTON PRESSURE CONTROL ACTIVE
Info:        TARGET PRESSURE IS 1.01325 BAR
Info:     OSCILLATION PERIOD IS 50 FS
Info:             DECAY TIME IS 25 FS
Info:     PISTON TEMPERATURE IS 300 K
Info:       PRESSURE CONTROL IS GROUP-BASED
Info:    INITIAL STRAIN RATE IS 0 0 0
Info:       CELL FLUCTUATION IS ISOTROPIC
Info: PARTICLE MESH EWALD (PME) ACTIVE
Info: PME TOLERANCE               1e-06
Info: PME EWALD COEFFICIENT       0.348832
Info: PME INTERPOLATION ORDER     4
Info: PME GRID DIMENSIONS         40 36 36
Info: PME MAXIMUM GRID SPACING    1
Info: FULL ELECTROSTATIC EVALUATION FREQUENCY      2
Info: USING VERLET I (r-RESPA) MTS SCHEME.
Info: C1 SPLITTING OF LONG RANGE ELECTROSTATICS
Info: PLACING ATOMS IN PATCHES BY HYDROGEN GROUPS
Info: RIGID BONDS TO HYDROGEN : ALL
Info:         ERROR TOLERANCE : 1e-08
Info:          MAX ITERATIONS : 100
Info: RIGID WATER USING SETTLE ALGORITHM
Info: RANDOM NUMBER SEED     1743764075
Info: USE HYDROGEN BONDS?    NO
Info: Using AMBER format force field!
Info: AMBER PARM FILE        mobley_6571751.prmtop
Info: COORDINATE PDB         mobley_6571751.pdb
Info: Exclusions will be read from PARM file!
Info: SCNB (VDW SCALING)     2
Info: USING ARITHMETIC MEAN TO COMBINE L-J SIGMA PARAMETERS
Info: BINARY COORDINATES     mobley_6571751_min.coor
Info: SUMMARY OF PARAMETERS:
Info: 7 BONDS
Info: 9 ANGLES
Info:   9 HARMONIC
Info:   0 COSINE-BASED
Info: 12 DIHEDRAL
Info: 0 IMPROPER
Info: 0 CROSSTERM
Info: 0 VDW
Info: 21 VDW_PAIRS
Info: 0 NBTHOLE_PAIRS
Info: STRUCTURE SUMMARY:
Info: 2938 ATOMS
Info: 2938 BONDS
Info: 36 ANGLES
Info: 69 DIHEDRALS
Info: 0 IMPROPERS
Info: 0 CROSSTERMS
Info: 3020 EXCLUSIONS
Info: 19 FIXED ATOMS
Info: 2931 RIGID BONDS
Info: 12 RIGID BONDS BETWEEN FIXED ATOMS
Info: 5838 DEGREES OF FREEDOM
Info: 980 HYDROGEN GROUPS
Info: 4 ATOMS IN LARGEST HYDROGEN GROUP
Info: 980 MIGRATION GROUPS
Info: 4 ATOMS IN LARGEST MIGRATION GROUP
Info: 7 HYDROGEN GROUPS WITH ALL ATOMS FIXED
Info: TOTAL MASS = 17625.7 amu
Info: TOTAL CHARGE = -0.000200026 e
Info: MASS DENSITY = 0.666791 g/cm^3
Info: ATOM DENSITY = 0.0669322 atoms/A^3
Info: ADDED 0 IMPLICIT EXCLUSIONS
Info: NONBONDED TABLE R-SQUARED SPACING: 0.0625
Info: NONBONDED TABLE SIZE: 705 POINTS
Info: REMOVING COM VELOCITY -0.0803405 0.013261 -0.0684688
TCL: Running for 100000 steps
ETITLE: TS BOND ANGLE DIHED IMPRP ELECT VDW BOUNDARY MISC KINETIC TOTAL TEMP POTENTIAL TOTAL3 TEMPAVG PRESSURE GPRESSURE VOLUME PRESSAVG GPRESSAVG
ENERGY: 0 0.0000 0.0000 0.0000 0.0000 -13518.4238 2376.6380 0.0000 0.0000 1706.5108 -9435.2750 294.1950 -11141.7858 -9434.9489 294.1950 361.2380 395.2422 43895.1425 361.2380 395.2422
ENERGY: 100000 0.0000 0.0000 0.0000 0.0000 -14300.3270 2622.5215 0.0000 0.0000 174.7024 -11503.1031 30.1179 -11677.8055 -11502.7023 30.9574 1484.0798 1539.3132 28356.3916 3.0801 3.0592
TCL: Running 100000 steps at 60 kelvin.
TCL: Setting parameter langevinTemp to 60
TCL: Running for 100000 steps
ETITLE: TS BOND ANGLE DIHED IMPRP ELECT VDW BOUNDARY MISC KINETIC TOTAL TEMP POTENTIAL TOTAL3 TEMPAVG PRESSURE GPRESSURE VOLUME PRESSAVG GPRESSAVG
ENERGY: 100000 0.0000 0.0000 0.0000 0.0000 -14300.3270 2622.5215 0.0000 0.0000 174.6157 -11503.1898 30.1030 -11677.8055 -11502.8387 30.1030 1486.2976 1539.1599 28356.3916 1486.2976 1539.1599
ENERGY: 200000 0.0000 0.0000 0.0000 0.0000 -14011.5112 2391.8731 0.0000 0.0000 352.1876 -11267.4505 60.7156 -11619.6381 -11266.1826 59.8333 -239.5698 -180.5766 28603.5891 4.7074 4.6847
TCL: Running 100000 steps at 90 kelvin.
TCL: Setting parameter langevinTemp to 90
TCL: Running for 100000 steps
ETITLE: TS BOND ANGLE DIHED IMPRP ELECT VDW BOUNDARY MISC KINETIC TOTAL TEMP POTENTIAL TOTAL3 TEMPAVG PRESSURE GPRESSURE VOLUME PRESSAVG GPRESSAVG
ENERGY: 200000 0.0000 0.0000 0.0000 0.0000 -14011.5112 2391.8731 0.0000 0.0000 352.0144 -11267.6237 60.6857 -11619.6381 -11266.8562 60.6857 -236.6228 -180.1553 28603.5891 -236.6228 -180.1553
ENERGY: 300000 0.0000 0.0000 0.0000 0.0000 -13871.7210 2344.1831 0.0000 0.0000 515.7297 -11011.8082 88.9096 -11527.5380 -11010.5092 89.7280 -202.8271 -161.8024 28509.4768 5.1791 5.1051
TCL: Running 100000 steps at 120 kelvin.
TCL: Setting parameter langevinTemp to 120
TCL: Running for 100000 steps
ETITLE: TS BOND ANGLE DIHED IMPRP ELECT VDW BOUNDARY MISC KINETIC TOTAL TEMP POTENTIAL TOTAL3 TEMPAVG PRESSURE GPRESSURE VOLUME PRESSAVG GPRESSAVG
ENERGY: 300000 0.0000 0.0000 0.0000 0.0000 -13871.7210 2344.1831 0.0000 0.0000 515.4689 -11012.0691 88.8646 -11527.5380 -11010.9632 88.8646 -208.7683 -161.5990 28509.4768 -208.7683 -161.5990
ENERGY: 400000 0.0000 0.0000 0.0000 0.0000 -13726.3427 2319.2737 0.0000 0.0000 707.0649 -10700.0041 121.8949 -11407.0690 -10698.4089 119.8580 -112.3367 -76.7736 28590.0142 5.4802 5.5068
TCL: Running 100000 steps at 150 kelvin.
TCL: Setting parameter langevinTemp to 150
TCL: Running for 100000 steps
ETITLE: TS BOND ANGLE DIHED IMPRP ELECT VDW BOUNDARY MISC KINETIC TOTAL TEMP POTENTIAL TOTAL3 TEMPAVG PRESSURE GPRESSURE VOLUME PRESSAVG GPRESSAVG
ENERGY: 400000 0.0000 0.0000 0.0000 0.0000 -13726.3427 2319.2737 0.0000 0.0000 706.7132 -10700.3559 121.8343 -11407.0690 -10699.3311 121.8343 -121.4103 -76.1637 28590.0142 -121.4103 -76.1637
ENERGY: 500000 0.0000 0.0000 0.0000 0.0000 -13465.6956 2249.1110 0.0000 0.0000 873.4531 -10343.1315 150.5795 -11216.5846 -10340.8921 149.9187 -82.8721 -32.8548 28917.0743 4.5369 4.5291
TCL: Running 100000 steps at 180 kelvin.
TCL: Setting parameter langevinTemp to 180
TCL: Running for 100000 steps
ETITLE: TS BOND ANGLE DIHED IMPRP ELECT VDW BOUNDARY MISC KINETIC TOTAL TEMP POTENTIAL TOTAL3 TEMPAVG PRESSURE GPRESSURE VOLUME PRESSAVG GPRESSAVG
ENERGY: 500000 0.0000 0.0000 0.0000 0.0000 -13465.6956 2249.1110 0.0000 0.0000 873.0197 -10343.5648 150.5048 -11216.5846 -10341.8168 150.5048 -97.3123 -33.3135 28917.0743 -97.3123 -33.3135
ENERGY: 600000 0.0000 0.0000 0.0000 0.0000 -12964.8414 2061.4466 0.0000 0.0000 1025.5230 -9877.8718 176.7957 -10903.3947 -9875.3148 180.3612 -390.1205 -349.7326 28976.8869 3.4390 3.4867
TCL: Running 100000 steps at 210 kelvin.
TCL: Setting parameter langevinTemp to 210
TCL: Running for 100000 steps
ETITLE: TS BOND ANGLE DIHED IMPRP ELECT VDW BOUNDARY MISC KINETIC TOTAL TEMP POTENTIAL TOTAL3 TEMPAVG PRESSURE GPRESSURE VOLUME PRESSAVG GPRESSAVG
ENERGY: 600000 0.0000 0.0000 0.0000 0.0000 -12964.8414 2061.4466 0.0000 0.0000 1025.0176 -9878.3772 176.7086 -10903.3947 -9876.5764 176.7086 -387.2672 -349.3407 28976.8869 -387.2672 -349.3407
ENERGY: 700000 0.0000 0.0000 0.0000 0.0000 -12329.8920 1865.1879 0.0000 0.0000 1207.8018 -9256.9023 208.2198 -10464.7041 -9252.6449 209.6448 -450.8667 -395.5614 29037.5812 4.2654 4.2900
TCL: Running 100000 steps at 240 kelvin.
TCL: Setting parameter langevinTemp to 240
TCL: Running for 100000 steps
ETITLE: TS BOND ANGLE DIHED IMPRP ELECT VDW BOUNDARY MISC KINETIC TOTAL TEMP POTENTIAL TOTAL3 TEMPAVG PRESSURE GPRESSURE VOLUME PRESSAVG GPRESSAVG
ENERGY: 700000 0.0000 0.0000 0.0000 0.0000 -12329.8920 1865.1879 0.0000 0.0000 1207.1573 -9257.5468 208.1087 -10464.7041 -9255.0579 208.1087 -479.0057 -395.6020 29037.5812 -479.0057 -395.6020
ENERGY: 800000 0.0000 0.0000 0.0000 0.0000 -11762.4784 1735.8265 0.0000 0.0000 1377.3086 -8649.3432 237.4420 -10026.6518 -8645.5266 239.8333 35.6451 93.9943 29149.7366 1.8458 2.0563
TCL: Running 100000 steps at 270 kelvin.
TCL: Setting parameter langevinTemp to 270
TCL: Running for 100000 steps
ETITLE: TS BOND ANGLE DIHED IMPRP ELECT VDW BOUNDARY MISC KINETIC TOTAL TEMP POTENTIAL TOTAL3 TEMPAVG PRESSURE GPRESSURE VOLUME PRESSAVG GPRESSAVG
ENERGY: 800000 0.0000 0.0000 0.0000 0.0000 -11762.4784 1735.8265 0.0000 0.0000 1376.6423 -8650.0095 237.3271 -10026.6518 -8648.0737 237.3271 24.1017 95.6301 29149.7366 24.1017 95.6301
ENERGY: 900000 0.0000 0.0000 0.0000 0.0000 -11181.7598 1509.0237 0.0000 0.0000 1585.7524 -8086.9837 273.3768 -9672.7361 -8083.9335 269.6425 -465.2366 -334.2747 29302.9990 3.0302 3.2174
TCL: Running 1000000 steps at 300 kelvin.
TCL: Setting parameter langevinTemp to 300
TCL: Running for 1000000 steps
ETITLE: TS BOND ANGLE DIHED IMPRP ELECT VDW BOUNDARY MISC KINETIC TOTAL TEMP POTENTIAL TOTAL3 TEMPAVG PRESSURE GPRESSURE VOLUME PRESSAVG GPRESSAVG
ENERGY: 900000 0.0000 0.0000 0.0000 0.0000 -11181.7598 1509.0237 0.0000 0.0000 1584.9886 -8087.7475 273.2451 -9672.7361 -8085.0783 273.2451 -422.7558 -336.6273 29302.9990 -422.7558 -336.6273
ENERGY: 1100000 0.0000 0.0000 0.0000 0.0000 -10560.2773 1390.2502 0.0000 0.0000 1796.5615 -7373.4656 309.7194 -9170.0272 -7370.2267 300.1007 -196.5426 -64.4104 30263.5916 3.1500 3.2662
ENERGY: 1300000 0.0000 0.0000 0.0000 0.0000 -10583.8199 1425.0914 0.0000 0.0000 1735.9606 -7422.7678 299.2721 -9158.7284 -7420.5337 300.3251 154.5539 263.6873 30000.4973 2.5641 2.3530
ENERGY: 1500000 0.0000 0.0000 0.0000 0.0000 -10614.3428 1374.3323 0.0000 0.0000 1740.1678 -7499.8428 299.9973 -9240.0105 -7497.1182 300.2617 -454.0704 -316.3183 30214.7227 3.4090 3.2994
ENERGY: 1700000 0.0000 0.0000 0.0000 0.0000 -10583.3128 1413.5699 0.0000 0.0000 1750.3196 -7419.4233 301.7475 -9169.7429 -7414.4092 299.5673 -207.0754 -104.6784 30685.5429 3.7611 3.6717
ENERGY: 1900000 0.0000 0.0000 0.0000 0.0000 -10574.5847 1356.0614 0.0000 0.0000 1736.6963 -7481.8269 299.3989 -9218.5233 -7475.9254 300.6412 -389.6585 -326.9013 30019.7618 3.4333 3.4917
TCL: Exiting due to exit command.
