Info: SIMULATION PARAMETERS:
Info: TIMESTEP               2
Info: NUMBER OF STEPS        0
Info: STEPS PER CYCLE        10
Info: PERIODIC CELL BASIS 1  37.968 0 0
Info: PERIODIC CELL BASIS 2  0 35.779 0
Info: PERIODIC CELL BASIS 3  0 0 31.855
Info: PERIODIC CELL CENTER   0 0 0
Info: WRAPPING WATERS AROUND PERIODIC BOUNDARIES ON OUTPUT.
Info: WRAPPING ALL CLUSTERS AROUND PERIODIC BOUNDARIES ON OUTPUT.
Info: FIRST LDB TIMESTEP     50
Info: LAST LDB TIMESTEP     -1
Info: HOM BACKGROUND SCALING 1
Info: PME BACKGROUND SCALING 1
Info: MIN ATOMS PER PATCH    40
Info: EMPTY PATCH LOAD       40 ATOMS
Info: INITIAL TEMPERATURE    300
Info: CENTER OF MASS MOVING INITIALLY? NO
Info: DIELECTRIC             1
Info: EXCLUDE                SCALED ONE-FOUR
Info: 1-4 ELECTROSTATICS SCALED BY 0.833333
Info: MODIFIED 1-4 VDW PARAMETERS WILL BE USED
Info: DCD FILENAME           mobley_6082662_equil.dcd
Info: DCD FREQUENCY          100000
Info: DCD FIRST STEP         100000
Info: DCD FILE WILL CONTAIN UNIT CELL DATA
Info: XST FILENAME           mobley_6082662_equil.xst
Info: XST FREQUENCY          100000
Info: NO VELOCITY DCD OUTPUT
Info: NO FORCE DCD OUTPUT
Info: OUTPUT FILENAME        mobley_6082662_equil
Info: BINARY OUTPUT FILES WILL BE USED
Info: RESTART FILENAME       mobley_6082662_equil.restart
Info: RESTART FREQUENCY      100000
Info: BINARY RESTART FILES WILL BE USED
Info: CUTOFF                 9
Info: PAIRLIST DISTANCE      11
Info: PAIRLIST SHRINK RATE   0.01
Info: PAIRLIST GROW RATE     0.01
Info: PAIRLIST TRIGGER       0.3
Info: PAIRLISTS PER CYCLE    2
Info: PAIRLISTS ENABLED
Info: MARGIN                 8
Info: HYDROGEN GROUP CUTOFF  2.5
Info: PATCH DIMENSION        21.5
Info: ENERGY OUTPUT STEPS    100000
Info: ENERGY EVALUATION STEPS    100000
Info: OUTPUT ENERGY PRECISION 4
Info: CROSSTERM ENERGY INCLUDED IN DIHEDRAL
Info: TIMING OUTPUT STEPS    1000000
Info: PRESSURE OUTPUT STEPS  100000
Info: FIXED ATOMS ACTIVE
Info: LANGEVIN DYNAMICS ACTIVE
Info: LANGEVIN TEMPERATURE   30
Info: LANGEVIN USING BBK INTEGRATOR
Info: LANGEVIN DAMPING COEFFICIENT IS 1 INVERSE PS
Info: LANGEVIN DYNAMICS APPLIED TO HYDROGENS
Info: LANGEVIN PISTON PRESSURE CONTROL ACTIVE
Info:        TARGET PRESSURE IS 1.01325 BAR
Info:     OSCILLATION PERIOD IS 50 FS
Info:             DECAY TIME IS 25 FS
Info:     PISTON TEMPERATURE IS 300 K
Info:       PRESSURE CONTROL IS GROUP-BASED
Info:    INITIAL STRAIN RATE IS 0 0 0
Info:       CELL FLUCTUATION IS ISOTROPIC
Info: PARTICLE MESH EWALD (PME) ACTIVE
Info: PME TOLERANCE               1e-06
Info: PME EWALD COEFFICIENT       0.348832
Info: PME INTERPOLATION ORDER     4
Info: PME GRID DIMENSIONS         40 36 32
Info: PME MAXIMUM GRID SPACING    1
Info: FULL ELECTROSTATIC EVALUATION FREQUENCY      2
Info: USING VERLET I (r-RESPA) MTS SCHEME.
Info: C1 SPLITTING OF LONG RANGE ELECTROSTATICS
Info: PLACING ATOMS IN PATCHES BY HYDROGEN GROUPS
Info: RIGID BONDS TO HYDROGEN : ALL
Info:         ERROR TOLERANCE : 1e-08
Info:          MAX ITERATIONS : 100
Info: RIGID WATER USING SETTLE ALGORITHM
Info: RANDOM NUMBER SEED     1744092439
Info: USE HYDROGEN BONDS?    NO
Info: Using AMBER format force field!
Info: AMBER PARM FILE        mobley_6082662.prmtop
Info: COORDINATE PDB         mobley_6082662.pdb
Info: Exclusions will be read from PARM file!
Info: SCNB (VDW SCALING)     2
Info: USING ARITHMETIC MEAN TO COMBINE L-J SIGMA PARAMETERS
Info: BINARY COORDINATES     mobley_6082662_min.coor
Info: SUMMARY OF PARAMETERS:
Info: 8 BONDS
Info: 8 ANGLES
Info:   8 HARMONIC
Info:   0 COSINE-BASED
Info: 4 DIHEDRAL
Info: 0 IMPROPER
Info: 0 CROSSTERM
Info: 0 VDW
Info: 28 VDW_PAIRS
Info: 0 NBTHOLE_PAIRS
Info: STRUCTURE SUMMARY:
Info: 2977 ATOMS
Info: 2977 BONDS
Info: 24 ANGLES
Info: 39 DIHEDRALS
Info: 0 IMPROPERS
Info: 0 CROSSTERMS
Info: 3030 EXCLUSIONS
Info: 16 FIXED ATOMS
Info: 2967 RIGID BONDS
Info: 6 RIGID BONDS BETWEEN FIXED ATOMS
Info: 5922 DEGREES OF FREEDOM
Info: 997 HYDROGEN GROUPS
Info: 3 ATOMS IN LARGEST HYDROGEN GROUP
Info: 997 MIGRATION GROUPS
Info: 3 ATOMS IN LARGEST MIGRATION GROUP
Info: 10 HYDROGEN GROUPS WITH ALL ATOMS FIXED
Info: TOTAL MASS = 17919.9 amu
Info: TOTAL CHARGE = -0.00010008 e
Info: MASS DENSITY = 0.687657 g/cm^3
Info: ATOM DENSITY = 0.0687948 atoms/A^3
Info: ADDED 0 IMPLICIT EXCLUSIONS
Info: NONBONDED TABLE R-SQUARED SPACING: 0.0625
Info: NONBONDED TABLE SIZE: 705 POINTS
Info: REMOVING COM VELOCITY 0.19965 -0.00362575 -0.00609251
TCL: Running for 100000 steps
ETITLE: TS BOND ANGLE DIHED IMPRP ELECT VDW BOUNDARY MISC KINETIC TOTAL TEMP POTENTIAL TOTAL3 TEMPAVG PRESSURE GPRESSURE VOLUME PRESSAVG GPRESSAVG
ENERGY: 0 0.0000 0.0000 0.0000 0.0000 -13971.1253 2400.1388 0.0000 0.0000 1810.5347 -9760.4517 307.7010 -11570.9865 -9760.0829 307.7010 213.6985 247.2028 43273.6500 213.6985 247.2028
ENERGY: 100000 0.0000 0.0000 0.0000 0.0000 -14261.9821 2327.7088 0.0000 0.0000 178.2829 -11755.9905 30.2992 -11934.2734 -11755.6580 30.9101 -1314.7608 -1259.9823 29424.1994 4.2285 4.2301
TCL: Running 100000 steps at 60 kelvin.
TCL: Setting parameter langevinTemp to 60
TCL: Running for 100000 steps
ETITLE: TS BOND ANGLE DIHED IMPRP ELECT VDW BOUNDARY MISC KINETIC TOTAL TEMP POTENTIAL TOTAL3 TEMPAVG PRESSURE GPRESSURE VOLUME PRESSAVG GPRESSAVG
ENERGY: 100000 0.0000 0.0000 0.0000 0.0000 -14261.9821 2327.7088 0.0000 0.0000 178.1937 -11756.0796 30.2841 -11934.2734 -11755.6388 30.2841 -1323.3463 -1260.1221 29424.1994 -1323.3463 -1260.1221
ENERGY: 200000 0.0000 0.0000 0.0000 0.0000 -14342.9039 2447.5907 0.0000 0.0000 341.6130 -11553.7003 58.0572 -11895.3132 -11552.8136 59.9852 -108.8065 -97.1362 29098.1856 4.6584 4.7072
TCL: Running 100000 steps at 90 kelvin.
TCL: Setting parameter langevinTemp to 90
TCL: Running for 100000 steps
ETITLE: TS BOND ANGLE DIHED IMPRP ELECT VDW BOUNDARY MISC KINETIC TOTAL TEMP POTENTIAL TOTAL3 TEMPAVG PRESSURE GPRESSURE VOLUME PRESSAVG GPRESSAVG
ENERGY: 200000 0.0000 0.0000 0.0000 0.0000 -14342.9039 2447.5907 0.0000 0.0000 341.4338 -11553.8794 58.0268 -11895.3132 -11553.2323 58.0268 -144.5098 -97.1259 29098.1856 -144.5098 -97.1259
ENERGY: 300000 0.0000 0.0000 0.0000 0.0000 -14134.4423 2317.8955 0.0000 0.0000 525.2001 -11291.3467 89.2579 -11816.5468 -11290.1498 89.9613 -974.5182 -908.5416 29090.6668 3.5917 3.6824
TCL: Running 100000 steps at 120 kelvin.
TCL: Setting parameter langevinTemp to 120
TCL: Running for 100000 steps
ETITLE: TS BOND ANGLE DIHED IMPRP ELECT VDW BOUNDARY MISC KINETIC TOTAL TEMP POTENTIAL TOTAL3 TEMPAVG PRESSURE GPRESSURE VOLUME PRESSAVG GPRESSAVG
ENERGY: 300000 0.0000 0.0000 0.0000 0.0000 -14134.4423 2317.8955 0.0000 0.0000 524.9439 -11291.6028 89.2144 -11816.5468 -11290.4396 89.2144 -949.4555 -908.4217 29090.6668 -949.4555 -908.4217
ENERGY: 400000 0.0000 0.0000 0.0000 0.0000 -13996.7671 2345.6492 0.0000 0.0000 708.6998 -10942.4182 120.4437 -11651.1179 -10940.4331 120.0718 17.4288 92.9361 29048.4153 3.6213 3.5940
TCL: Running 100000 steps at 150 kelvin.
TCL: Setting parameter langevinTemp to 150
TCL: Running for 100000 steps
ETITLE: TS BOND ANGLE DIHED IMPRP ELECT VDW BOUNDARY MISC KINETIC TOTAL TEMP POTENTIAL TOTAL3 TEMPAVG PRESSURE GPRESSURE VOLUME PRESSAVG GPRESSAVG
ENERGY: 400000 0.0000 0.0000 0.0000 0.0000 -13996.7671 2345.6492 0.0000 0.0000 708.3468 -10942.7711 120.3838 -11651.1179 -10941.3144 120.3838 45.7063 92.3803 29048.4153 45.7063 92.3803
ENERGY: 500000 0.0000 0.0000 0.0000 0.0000 -13789.1147 2301.6456 0.0000 0.0000 863.0834 -10624.3856 146.6813 -11487.4691 -10623.6404 149.9358 219.5362 233.4092 29127.4559 4.2518 4.0503
TCL: Running 100000 steps at 180 kelvin.
TCL: Setting parameter langevinTemp to 180
TCL: Running for 100000 steps
ETITLE: TS BOND ANGLE DIHED IMPRP ELECT VDW BOUNDARY MISC KINETIC TOTAL TEMP POTENTIAL TOTAL3 TEMPAVG PRESSURE GPRESSURE VOLUME PRESSAVG GPRESSAVG
ENERGY: 500000 0.0000 0.0000 0.0000 0.0000 -13789.1147 2301.6456 0.0000 0.0000 862.6432 -10624.8259 146.6065 -11487.4691 -10623.3169 146.6065 176.1556 232.2652 29127.4559 176.1556 232.2652
ENERGY: 600000 0.0000 0.0000 0.0000 0.0000 -13216.0962 2029.8109 0.0000 0.0000 1054.4992 -10131.7861 179.2125 -11186.2853 -10130.4534 179.8922 -813.3500 -749.4138 29206.6834 2.3863 2.3660
TCL: Running 100000 steps at 210 kelvin.
TCL: Setting parameter langevinTemp to 210
TCL: Running for 100000 steps
ETITLE: TS BOND ANGLE DIHED IMPRP ELECT VDW BOUNDARY MISC KINETIC TOTAL TEMP POTENTIAL TOTAL3 TEMPAVG PRESSURE GPRESSURE VOLUME PRESSAVG GPRESSAVG
ENERGY: 600000 0.0000 0.0000 0.0000 0.0000 -13216.0962 2029.8109 0.0000 0.0000 1053.9811 -10132.3041 179.1244 -11186.2853 -10130.2475 179.1244 -810.9272 -749.2599 29206.6834 -810.9272 -749.2599
ENERGY: 700000 0.0000 0.0000 0.0000 0.0000 -12719.2417 1993.8909 0.0000 0.0000 1200.8218 -9524.5290 204.0800 -10725.3508 -9522.1935 209.5936 634.3732 731.8866 28826.2659 4.3495 4.3542
TCL: Running 100000 steps at 240 kelvin.
TCL: Setting parameter langevinTemp to 240
TCL: Running for 100000 steps
ETITLE: TS BOND ANGLE DIHED IMPRP ELECT VDW BOUNDARY MISC KINETIC TOTAL TEMP POTENTIAL TOTAL3 TEMPAVG PRESSURE GPRESSURE VOLUME PRESSAVG GPRESSAVG
ENERGY: 700000 0.0000 0.0000 0.0000 0.0000 -12719.2417 1993.8909 0.0000 0.0000 1200.2109 -9525.1399 203.9762 -10725.3508 -9523.2256 203.9762 653.6204 732.0029 28826.2659 653.6204 732.0029
ENERGY: 800000 0.0000 0.0000 0.0000 0.0000 -12018.8798 1762.3097 0.0000 0.0000 1358.7908 -8897.7793 230.9269 -10256.5701 -8894.6520 240.0357 339.9023 435.1515 29204.5814 4.5899 4.8537
TCL: Running 100000 steps at 270 kelvin.
TCL: Setting parameter langevinTemp to 270
TCL: Running for 100000 steps
ETITLE: TS BOND ANGLE DIHED IMPRP ELECT VDW BOUNDARY MISC KINETIC TOTAL TEMP POTENTIAL TOTAL3 TEMPAVG PRESSURE GPRESSURE VOLUME PRESSAVG GPRESSAVG
ENERGY: 800000 0.0000 0.0000 0.0000 0.0000 -12018.8798 1762.3097 0.0000 0.0000 1358.0540 -8898.5161 230.8017 -10256.5701 -8896.6152 230.8017 358.3058 434.5245 29204.5814 358.3058 434.5245
ENERGY: 900000 0.0000 0.0000 0.0000 0.0000 -11424.4859 1544.6197 0.0000 0.0000 1542.1027 -8337.7635 262.0808 -9879.8662 -8334.5446 269.9043 -268.3494 -136.8745 29661.4527 2.9647 3.0911
TCL: Running 1000000 steps at 300 kelvin.
TCL: Setting parameter langevinTemp to 300
TCL: Running for 1000000 steps
ETITLE: TS BOND ANGLE DIHED IMPRP ELECT VDW BOUNDARY MISC KINETIC TOTAL TEMP POTENTIAL TOTAL3 TEMPAVG PRESSURE GPRESSURE VOLUME PRESSAVG GPRESSAVG
ENERGY: 900000 0.0000 0.0000 0.0000 0.0000 -11424.4859 1544.6197 0.0000 0.0000 1541.3000 -8338.5661 261.9444 -9879.8662 -8335.5303 261.9444 -216.5571 -137.8366 29661.4527 -216.5571 -137.8366
ENERGY: 1100000 0.0000 0.0000 0.0000 0.0000 -10814.2752 1406.4207 0.0000 0.0000 1749.2399 -7658.6146 297.2839 -9407.8545 -7656.1128 299.8925 -273.0606 -196.0245 30859.4093 2.7287 2.6793
ENERGY: 1300000 0.0000 0.0000 0.0000 0.0000 -10917.4035 1467.2961 0.0000 0.0000 1803.3876 -7646.7198 306.4863 -9450.1074 -7642.1972 300.6933 309.5713 365.1137 30429.4187 2.5792 2.7081
ENERGY: 1500000 0.0000 0.0000 0.0000 0.0000 -10782.9972 1377.2524 0.0000 0.0000 1799.1351 -7606.6097 305.7636 -9405.7448 -7602.7335 300.3196 -469.2926 -452.7968 30906.3847 2.9362 3.0030
ENERGY: 1700000 0.0000 0.0000 0.0000 0.0000 -11023.3673 1499.6794 0.0000 0.0000 1820.2214 -7703.4665 309.3472 -9523.6879 -7698.3815 300.3700 380.4461 457.5613 30373.8251 3.2280 3.3112
ENERGY: 1900000 0.0000 0.0000 0.0000 0.0000 -10756.8667 1337.4199 0.0000 0.0000 1760.9830 -7658.4638 299.2796 -9419.4468 -7654.7097 300.2397 -670.1617 -641.9243 30861.3967 3.4783 3.4919
TCL: Exiting due to exit command.
