Info: SIMULATION PARAMETERS:
Info: TIMESTEP               2
Info: NUMBER OF STEPS        0
Info: STEPS PER CYCLE        10
Info: PERIODIC CELL BASIS 1  36.005 0 0
Info: PERIODIC CELL BASIS 2  0 35.411 0
Info: PERIODIC CELL BASIS 3  0 0 34.68
Info: PERIODIC CELL CENTER   0 0 0
Info: WRAPPING WATERS AROUND PERIODIC BOUNDARIES ON OUTPUT.
Info: WRAPPING ALL CLUSTERS AROUND PERIODIC BOUNDARIES ON OUTPUT.
Info: FIRST LDB TIMESTEP     50
Info: LAST LDB TIMESTEP     -1
Info: HOM BACKGROUND SCALING 1
Info: PME BACKGROUND SCALING 1
Info: MIN ATOMS PER PATCH    40
Info: EMPTY PATCH LOAD       40 ATOMS
Info: INITIAL TEMPERATURE    300
Info: CENTER OF MASS MOVING INITIALLY? NO
Info: DIELECTRIC             1
Info: EXCLUDE                SCALED ONE-FOUR
Info: 1-4 ELECTROSTATICS SCALED BY 0.833333
Info: MODIFIED 1-4 VDW PARAMETERS WILL BE USED
Info: DCD FILENAME           mobley_3034976_equil.dcd
Info: DCD FREQUENCY          100000
Info: DCD FIRST STEP         100000
Info: DCD FILE WILL CONTAIN UNIT CELL DATA
Info: XST FILENAME           mobley_3034976_equil.xst
Info: XST FREQUENCY          100000
Info: NO VELOCITY DCD OUTPUT
Info: NO FORCE DCD OUTPUT
Info: OUTPUT FILENAME        mobley_3034976_equil
Info: BINARY OUTPUT FILES WILL BE USED
Info: RESTART FILENAME       mobley_3034976_equil.restart
Info: RESTART FREQUENCY      100000
Info: BINARY RESTART FILES WILL BE USED
Info: CUTOFF                 9
Info: PAIRLIST DISTANCE      11
Info: PAIRLIST SHRINK RATE   0.01
Info: PAIRLIST GROW RATE     0.01
Info: PAIRLIST TRIGGER       0.3
Info: PAIRLISTS PER CYCLE    2
Info: PAIRLISTS ENABLED
Info: MARGIN                 8
Info: HYDROGEN GROUP CUTOFF  2.5
Info: PATCH DIMENSION        21.5
Info: ENERGY OUTPUT STEPS    100000
Info: ENERGY EVALUATION STEPS    100000
Info: OUTPUT ENERGY PRECISION 4
Info: CROSSTERM ENERGY INCLUDED IN DIHEDRAL
Info: TIMING OUTPUT STEPS    1000000
Info: PRESSURE OUTPUT STEPS  100000
Info: FIXED ATOMS ACTIVE
Info: LANGEVIN DYNAMICS ACTIVE
Info: LANGEVIN TEMPERATURE   30
Info: LANGEVIN USING BBK INTEGRATOR
Info: LANGEVIN DAMPING COEFFICIENT IS 1 INVERSE PS
Info: LANGEVIN DYNAMICS APPLIED TO HYDROGENS
Info: LANGEVIN PISTON PRESSURE CONTROL ACTIVE
Info:        TARGET PRESSURE IS 1.01325 BAR
Info:     OSCILLATION PERIOD IS 50 FS
Info:             DECAY TIME IS 25 FS
Info:     PISTON TEMPERATURE IS 300 K
Info:       PRESSURE CONTROL IS GROUP-BASED
Info:    INITIAL STRAIN RATE IS 0 0 0
Info:       CELL FLUCTUATION IS ISOTROPIC
Info: PARTICLE MESH EWALD (PME) ACTIVE
Info: PME TOLERANCE               1e-06
Info: PME EWALD COEFFICIENT       0.348832
Info: PME INTERPOLATION ORDER     4
Info: PME GRID DIMENSIONS         40 36 36
Info: PME MAXIMUM GRID SPACING    1
Info: FULL ELECTROSTATIC EVALUATION FREQUENCY      2
Info: USING VERLET I (r-RESPA) MTS SCHEME.
Info: C1 SPLITTING OF LONG RANGE ELECTROSTATICS
Info: PLACING ATOMS IN PATCHES BY HYDROGEN GROUPS
Info: RIGID BONDS TO HYDROGEN : ALL
Info:         ERROR TOLERANCE : 1e-08
Info:          MAX ITERATIONS : 100
Info: RIGID WATER USING SETTLE ALGORITHM
Info: RANDOM NUMBER SEED     1743673732
Info: USE HYDROGEN BONDS?    NO
Info: Using AMBER format force field!
Info: AMBER PARM FILE        mobley_3034976.prmtop
Info: COORDINATE PDB         mobley_3034976.pdb
Info: Exclusions will be read from PARM file!
Info: SCNB (VDW SCALING)     2
Info: USING ARITHMETIC MEAN TO COMBINE L-J SIGMA PARAMETERS
Info: BINARY COORDINATES     mobley_3034976_min.coor
Info: SUMMARY OF PARAMETERS:
Info: 7 BONDS
Info: 6 ANGLES
Info:   6 HARMONIC
Info:   0 COSINE-BASED
Info: 7 DIHEDRAL
Info: 0 IMPROPER
Info: 0 CROSSTERM
Info: 0 VDW
Info: 28 VDW_PAIRS
Info: 0 NBTHOLE_PAIRS
Info: STRUCTURE SUMMARY:
Info: 2933 ATOMS
Info: 2932 BONDS
Info: 10 ANGLES
Info: 16 DIHEDRALS
Info: 0 IMPROPERS
Info: 0 CROSSTERMS
Info: 2950 EXCLUSIONS
Info: 8 FIXED ATOMS
Info: 2929 RIGID BONDS
Info: 4 RIGID BONDS BETWEEN FIXED ATOMS
Info: 5850 DEGREES OF FREEDOM
Info: 979 HYDROGEN GROUPS
Info: 4 ATOMS IN LARGEST HYDROGEN GROUP
Info: 979 MIGRATION GROUPS
Info: 4 ATOMS IN LARGEST MIGRATION GROUP
Info: 4 HYDROGEN GROUPS WITH ALL ATOMS FIXED
Info: TOTAL MASS = 17625.7 amu
Info: TOTAL CHARGE = -9.98899e-05 e
Info: MASS DENSITY = 0.661949 g/cm^3
Info: ATOM DENSITY = 0.0663334 atoms/A^3
Info: ADDED 0 IMPLICIT EXCLUSIONS
Info: NONBONDED TABLE R-SQUARED SPACING: 0.0625
Info: NONBONDED TABLE SIZE: 705 POINTS
Info: REMOVING COM VELOCITY 0.0973205 0.0755659 -0.120747
TCL: Running for 100000 steps
ETITLE: TS BOND ANGLE DIHED IMPRP ELECT VDW BOUNDARY MISC KINETIC TOTAL TEMP POTENTIAL TOTAL3 TEMPAVG PRESSURE GPRESSURE VOLUME PRESSAVG GPRESSAVG
ENERGY: 0 0.0000 0.0000 0.0000 0.0000 -13663.2586 2416.4203 0.0000 0.0000 1733.9181 -9512.9202 298.3068 -11246.8383 -9512.6101 298.3068 645.3059 673.1445 44216.0655 645.3059 673.1445
ENERGY: 100000 0.0000 0.0000 0.0000 0.0000 -14285.6808 2522.8333 0.0000 0.0000 170.4944 -11592.3531 29.3322 -11762.8475 -11591.8750 30.9752 387.3270 456.3784 28955.4802 1.8569 1.8436
TCL: Running 100000 steps at 60 kelvin.
TCL: Setting parameter langevinTemp to 60
TCL: Running for 100000 steps
ETITLE: TS BOND ANGLE DIHED IMPRP ELECT VDW BOUNDARY MISC KINETIC TOTAL TEMP POTENTIAL TOTAL3 TEMPAVG PRESSURE GPRESSURE VOLUME PRESSAVG GPRESSAVG
ENERGY: 100000 0.0000 0.0000 0.0000 0.0000 -14285.6808 2522.8333 0.0000 0.0000 170.4081 -11592.4394 29.3173 -11762.8475 -11592.1373 29.3173 400.0501 456.3450 28955.4802 400.0501 456.3450
ENERGY: 200000 0.0000 0.0000 0.0000 0.0000 -14268.8097 2551.5653 0.0000 0.0000 356.8679 -11360.3765 61.3963 -11717.2444 -11359.3599 59.8569 965.4647 1028.4889 28668.9880 4.4275 4.4600
TCL: Running 100000 steps at 90 kelvin.
TCL: Setting parameter langevinTemp to 90
TCL: Running for 100000 steps
ETITLE: TS BOND ANGLE DIHED IMPRP ELECT VDW BOUNDARY MISC KINETIC TOTAL TEMP POTENTIAL TOTAL3 TEMPAVG PRESSURE GPRESSURE VOLUME PRESSAVG GPRESSAVG
ENERGY: 200000 0.0000 0.0000 0.0000 0.0000 -14268.8097 2551.5653 0.0000 0.0000 356.6942 -11360.5502 61.3664 -11717.2444 -11359.8089 61.3664 982.7910 1028.6160 28668.9880 982.7910 1028.6160
ENERGY: 300000 0.0000 0.0000 0.0000 0.0000 -14014.4988 2417.4703 0.0000 0.0000 532.0940 -11064.9344 91.5425 -11597.0285 -11063.6683 90.0636 423.6126 461.2357 28724.5559 3.6772 3.6494
TCL: Running 100000 steps at 120 kelvin.
TCL: Setting parameter langevinTemp to 120
TCL: Running for 100000 steps
ETITLE: TS BOND ANGLE DIHED IMPRP ELECT VDW BOUNDARY MISC KINETIC TOTAL TEMP POTENTIAL TOTAL3 TEMPAVG PRESSURE GPRESSURE VOLUME PRESSAVG GPRESSAVG
ENERGY: 300000 0.0000 0.0000 0.0000 0.0000 -14014.4988 2417.4703 0.0000 0.0000 531.8420 -11065.1865 91.4992 -11597.0285 -11064.2884 91.4992 404.7370 461.1456 28724.5559 404.7370 461.1456
ENERGY: 400000 0.0000 0.0000 0.0000 0.0000 -13809.3142 2327.1518 0.0000 0.0000 708.6492 -10773.5132 121.9174 -11482.1624 -10772.2198 120.0998 -23.7995 42.4500 28620.3533 3.4681 3.4842
TCL: Running 100000 steps at 150 kelvin.
TCL: Setting parameter langevinTemp to 150
TCL: Running for 100000 steps
ETITLE: TS BOND ANGLE DIHED IMPRP ELECT VDW BOUNDARY MISC KINETIC TOTAL TEMP POTENTIAL TOTAL3 TEMPAVG PRESSURE GPRESSURE VOLUME PRESSAVG GPRESSAVG
ENERGY: 400000 0.0000 0.0000 0.0000 0.0000 -13809.3142 2327.1518 0.0000 0.0000 708.2964 -10773.8660 121.8567 -11482.1624 -10772.4330 121.8567 -7.7768 42.5885 28620.3533 -7.7768 42.5885
ENERGY: 500000 0.0000 0.0000 0.0000 0.0000 -13448.8504 2124.0478 0.0000 0.0000 880.4959 -10444.3067 151.4823 -11324.8026 -10442.4282 149.6954 -1014.9776 -934.1733 28690.8939 4.2287 4.1243
TCL: Running 100000 steps at 180 kelvin.
TCL: Setting parameter langevinTemp to 180
TCL: Running for 100000 steps
ETITLE: TS BOND ANGLE DIHED IMPRP ELECT VDW BOUNDARY MISC KINETIC TOTAL TEMP POTENTIAL TOTAL3 TEMPAVG PRESSURE GPRESSURE VOLUME PRESSAVG GPRESSAVG
ENERGY: 500000 0.0000 0.0000 0.0000 0.0000 -13448.8504 2124.0478 0.0000 0.0000 880.0599 -10444.7427 151.4073 -11324.8026 -10443.0785 151.4073 -1002.7029 -934.6129 28690.8939 -1002.7029 -934.6129
ENERGY: 600000 0.0000 0.0000 0.0000 0.0000 -13257.0618 2164.5958 0.0000 0.0000 1061.3311 -10031.1349 182.5935 -11092.4660 -10028.5499 179.7914 218.2318 277.6972 28541.1649 5.5975 5.4967
TCL: Running 100000 steps at 210 kelvin.
TCL: Setting parameter langevinTemp to 210
TCL: Running for 100000 steps
ETITLE: TS BOND ANGLE DIHED IMPRP ELECT VDW BOUNDARY MISC KINETIC TOTAL TEMP POTENTIAL TOTAL3 TEMPAVG PRESSURE GPRESSURE VOLUME PRESSAVG GPRESSAVG
ENERGY: 600000 0.0000 0.0000 0.0000 0.0000 -13257.0618 2164.5958 0.0000 0.0000 1060.7930 -10031.6729 182.5010 -11092.4660 -10029.6026 182.5010 236.5537 277.6780 28541.1649 236.5537 277.6780
ENERGY: 700000 0.0000 0.0000 0.0000 0.0000 -12529.5995 1919.1541 0.0000 0.0000 1210.0723 -9400.3730 208.1833 -10610.4453 -9397.2159 210.3925 6.2367 108.0088 28614.0551 3.3217 3.3173
TCL: Running 100000 steps at 240 kelvin.
TCL: Setting parameter langevinTemp to 240
TCL: Running for 100000 steps
ETITLE: TS BOND ANGLE DIHED IMPRP ELECT VDW BOUNDARY MISC KINETIC TOTAL TEMP POTENTIAL TOTAL3 TEMPAVG PRESSURE GPRESSURE VOLUME PRESSAVG GPRESSAVG
ENERGY: 700000 0.0000 0.0000 0.0000 0.0000 -12529.5995 1919.1541 0.0000 0.0000 1209.4672 -9400.9781 208.0792 -10610.4453 -9398.5406 208.0792 16.5661 108.5506 28614.0551 16.5661 108.5506
ENERGY: 800000 0.0000 0.0000 0.0000 0.0000 -11891.1766 1767.5104 0.0000 0.0000 1390.8263 -8732.8400 239.2806 -10123.6663 -8729.8183 240.1655 558.3815 537.2511 28749.3083 3.9118 4.0135
TCL: Running 100000 steps at 270 kelvin.
TCL: Setting parameter langevinTemp to 270
TCL: Running for 100000 steps
ETITLE: TS BOND ANGLE DIHED IMPRP ELECT VDW BOUNDARY MISC KINETIC TOTAL TEMP POTENTIAL TOTAL3 TEMPAVG PRESSURE GPRESSURE VOLUME PRESSAVG GPRESSAVG
ENERGY: 800000 0.0000 0.0000 0.0000 0.0000 -11891.1766 1767.5104 0.0000 0.0000 1390.1149 -8733.5513 239.1582 -10123.6663 -8731.6137 239.1582 446.5265 537.8950 28749.3083 446.5265 537.8950
ENERGY: 900000 0.0000 0.0000 0.0000 0.0000 -11331.4742 1564.3131 0.0000 0.0000 1520.2840 -8246.8771 261.5527 -9767.1611 -8243.0452 270.0175 -194.6684 -89.5075 29236.8097 3.3073 3.2968
TCL: Running 1000000 steps at 300 kelvin.
TCL: Setting parameter langevinTemp to 300
TCL: Running for 1000000 steps
ETITLE: TS BOND ANGLE DIHED IMPRP ELECT VDW BOUNDARY MISC KINETIC TOTAL TEMP POTENTIAL TOTAL3 TEMPAVG PRESSURE GPRESSURE VOLUME PRESSAVG GPRESSAVG
ENERGY: 900000 0.0000 0.0000 0.0000 0.0000 -11331.4742 1564.3131 0.0000 0.0000 1519.5116 -8247.6495 261.4198 -9767.1611 -8245.3707 261.4198 -173.2663 -87.4416 29236.8097 -173.2663 -87.4416
ENERGY: 1100000 0.0000 0.0000 0.0000 0.0000 -10654.9586 1385.0194 0.0000 0.0000 1707.4375 -7562.5017 293.7510 -9269.9392 -7558.8985 299.1058 -522.6736 -387.4959 30426.4058 5.5751 5.6463
ENERGY: 1300000 0.0000 0.0000 0.0000 0.0000 -10709.9202 1389.6085 0.0000 0.0000 1765.3664 -7554.9454 303.7172 -9320.3118 -7551.9129 299.9096 -444.3296 -307.9374 30043.3101 3.6410 3.3831
ENERGY: 1500000 0.0000 0.0000 0.0000 0.0000 -10785.2766 1446.7101 0.0000 0.0000 1737.9702 -7600.5963 299.0039 -9338.5665 -7601.3123 300.5601 -177.0206 -101.1015 30386.8936 4.0367 3.9120
ENERGY: 1700000 0.0000 0.0000 0.0000 0.0000 -10742.9155 1397.1995 0.0000 0.0000 1740.0703 -7605.6456 299.3652 -9345.7159 -7604.5074 301.1017 -248.4972 -147.3151 29741.9633 3.3629 3.3917
ENERGY: 1900000 0.0000 0.0000 0.0000 0.0000 -10692.3421 1325.0660 0.0000 0.0000 1776.1846 -7591.0916 305.5784 -9367.2762 -7587.1349 299.9886 -1012.6018 -986.6597 30306.8655 2.1692 2.1833
TCL: Exiting due to exit command.
