Info: SIMULATION PARAMETERS:
Info: TIMESTEP               2
Info: NUMBER OF STEPS        0
Info: STEPS PER CYCLE        10
Info: PERIODIC CELL BASIS 1  36.281 0 0
Info: PERIODIC CELL BASIS 2  0 35.779 0
Info: PERIODIC CELL BASIS 3  0 0 34.471
Info: PERIODIC CELL CENTER   0 0 0
Info: WRAPPING WATERS AROUND PERIODIC BOUNDARIES ON OUTPUT.
Info: WRAPPING ALL CLUSTERS AROUND PERIODIC BOUNDARIES ON OUTPUT.
Info: FIRST LDB TIMESTEP     50
Info: LAST LDB TIMESTEP     -1
Info: HOM BACKGROUND SCALING 1
Info: PME BACKGROUND SCALING 1
Info: MIN ATOMS PER PATCH    40
Info: EMPTY PATCH LOAD       40 ATOMS
Info: INITIAL TEMPERATURE    300
Info: CENTER OF MASS MOVING INITIALLY? NO
Info: DIELECTRIC             1
Info: EXCLUDE                SCALED ONE-FOUR
Info: 1-4 ELECTROSTATICS SCALED BY 0.833333
Info: MODIFIED 1-4 VDW PARAMETERS WILL BE USED
Info: DCD FILENAME           mobley_3968043_equil.dcd
Info: DCD FREQUENCY          100000
Info: DCD FIRST STEP         100000
Info: DCD FILE WILL CONTAIN UNIT CELL DATA
Info: XST FILENAME           mobley_3968043_equil.xst
Info: XST FREQUENCY          100000
Info: NO VELOCITY DCD OUTPUT
Info: NO FORCE DCD OUTPUT
Info: OUTPUT FILENAME        mobley_3968043_equil
Info: BINARY OUTPUT FILES WILL BE USED
Info: RESTART FILENAME       mobley_3968043_equil.restart
Info: RESTART FREQUENCY      100000
Info: BINARY RESTART FILES WILL BE USED
Info: CUTOFF                 9
Info: PAIRLIST DISTANCE      11
Info: PAIRLIST SHRINK RATE   0.01
Info: PAIRLIST GROW RATE     0.01
Info: PAIRLIST TRIGGER       0.3
Info: PAIRLISTS PER CYCLE    2
Info: PAIRLISTS ENABLED
Info: MARGIN                 8
Info: HYDROGEN GROUP CUTOFF  2.5
Info: PATCH DIMENSION        21.5
Info: ENERGY OUTPUT STEPS    100000
Info: ENERGY EVALUATION STEPS    100000
Info: OUTPUT ENERGY PRECISION 4
Info: CROSSTERM ENERGY INCLUDED IN DIHEDRAL
Info: TIMING OUTPUT STEPS    1000000
Info: PRESSURE OUTPUT STEPS  100000
Info: FIXED ATOMS ACTIVE
Info: LANGEVIN DYNAMICS ACTIVE
Info: LANGEVIN TEMPERATURE   30
Info: LANGEVIN USING BBK INTEGRATOR
Info: LANGEVIN DAMPING COEFFICIENT IS 1 INVERSE PS
Info: LANGEVIN DYNAMICS APPLIED TO HYDROGENS
Info: LANGEVIN PISTON PRESSURE CONTROL ACTIVE
Info:        TARGET PRESSURE IS 1.01325 BAR
Info:     OSCILLATION PERIOD IS 50 FS
Info:             DECAY TIME IS 25 FS
Info:     PISTON TEMPERATURE IS 300 K
Info:       PRESSURE CONTROL IS GROUP-BASED
Info:    INITIAL STRAIN RATE IS 0 0 0
Info:       CELL FLUCTUATION IS ISOTROPIC
Info: PARTICLE MESH EWALD (PME) ACTIVE
Info: PME TOLERANCE               1e-06
Info: PME EWALD COEFFICIENT       0.348832
Info: PME INTERPOLATION ORDER     4
Info: PME GRID DIMENSIONS         40 36 36
Info: PME MAXIMUM GRID SPACING    1
Info: FULL ELECTROSTATIC EVALUATION FREQUENCY      2
Info: USING VERLET I (r-RESPA) MTS SCHEME.
Info: C1 SPLITTING OF LONG RANGE ELECTROSTATICS
Info: PLACING ATOMS IN PATCHES BY HYDROGEN GROUPS
Info: RIGID BONDS TO HYDROGEN : ALL
Info:         ERROR TOLERANCE : 1e-08
Info:          MAX ITERATIONS : 100
Info: RIGID WATER USING SETTLE ALGORITHM
Info: RANDOM NUMBER SEED     1743730916
Info: USE HYDROGEN BONDS?    NO
Info: Using AMBER format force field!
Info: AMBER PARM FILE        mobley_3968043.prmtop
Info: COORDINATE PDB         mobley_3968043.pdb
Info: Exclusions will be read from PARM file!
Info: SCNB (VDW SCALING)     2
Info: USING ARITHMETIC MEAN TO COMBINE L-J SIGMA PARAMETERS
Info: BINARY COORDINATES     mobley_3968043_min.coor
Info: SUMMARY OF PARAMETERS:
Info: 6 BONDS
Info: 7 ANGLES
Info:   7 HARMONIC
Info:   0 COSINE-BASED
Info: 11 DIHEDRAL
Info: 0 IMPROPER
Info: 0 CROSSTERM
Info: 0 VDW
Info: 21 VDW_PAIRS
Info: 0 NBTHOLE_PAIRS
Info: STRUCTURE SUMMARY:
Info: 2936 ATOMS
Info: 2936 BONDS
Info: 27 ANGLES
Info: 50 DIHEDRALS
Info: 0 IMPROPERS
Info: 0 CROSSTERMS
Info: 2997 EXCLUSIONS
Info: 14 FIXED ATOMS
Info: 2930 RIGID BONDS
Info: 8 RIGID BONDS BETWEEN FIXED ATOMS
Info: 5844 DEGREES OF FREEDOM
Info: 980 HYDROGEN GROUPS
Info: 3 ATOMS IN LARGEST HYDROGEN GROUP
Info: 980 MIGRATION GROUPS
Info: 3 ATOMS IN LARGEST MIGRATION GROUP
Info: 6 HYDROGEN GROUPS WITH ALL ATOMS FIXED
Info: TOTAL MASS = 17631.7 amu
Info: TOTAL CHARGE = 0.00030002 e
Info: MASS DENSITY = 0.654323 g/cm^3
Info: ATOM DENSITY = 0.0656137 atoms/A^3
Info: ADDED 0 IMPLICIT EXCLUSIONS
Info: NONBONDED TABLE R-SQUARED SPACING: 0.0625
Info: NONBONDED TABLE SIZE: 705 POINTS
Info: REMOVING COM VELOCITY -0.0375657 -0.0507456 0.0512764
TCL: Running for 100000 steps
ETITLE: TS BOND ANGLE DIHED IMPRP ELECT VDW BOUNDARY MISC KINETIC TOTAL TEMP POTENTIAL TOTAL3 TEMPAVG PRESSURE GPRESSURE VOLUME PRESSAVG GPRESSAVG
ENERGY: 0 0.0000 0.0000 0.0000 0.0000 -13650.0233 2394.0477 0.0000 0.0000 1721.6345 -9534.3411 296.4976 -11255.9756 -9534.0096 296.4976 472.3321 507.6123 44746.7327 472.3321 507.6123
ENERGY: 100000 0.0000 0.0000 0.0000 0.0000 -14292.3754 2531.8600 0.0000 0.0000 174.4111 -11586.1044 30.0368 -11760.5155 -11585.7223 30.9542 630.3967 710.6071 28146.8628 5.7515 5.7757
TCL: Running 100000 steps at 60 kelvin.
TCL: Setting parameter langevinTemp to 60
TCL: Running for 100000 steps
ETITLE: TS BOND ANGLE DIHED IMPRP ELECT VDW BOUNDARY MISC KINETIC TOTAL TEMP POTENTIAL TOTAL3 TEMPAVG PRESSURE GPRESSURE VOLUME PRESSAVG GPRESSAVG
ENERGY: 100000 0.0000 0.0000 0.0000 0.0000 -14292.3754 2531.8600 0.0000 0.0000 174.3228 -11586.1926 30.0216 -11760.5155 -11585.8282 30.0216 654.3544 710.5226 28146.8628 654.3544 710.5226
ENERGY: 200000 0.0000 0.0000 0.0000 0.0000 -14253.6296 2566.6229 0.0000 0.0000 353.5872 -11333.4195 60.8943 -11687.0067 -11332.2144 59.9330 1450.0155 1505.4314 27911.9962 4.7334 4.8298
TCL: Running 100000 steps at 90 kelvin.
TCL: Setting parameter langevinTemp to 90
TCL: Running for 100000 steps
ETITLE: TS BOND ANGLE DIHED IMPRP ELECT VDW BOUNDARY MISC KINETIC TOTAL TEMP POTENTIAL TOTAL3 TEMPAVG PRESSURE GPRESSURE VOLUME PRESSAVG GPRESSAVG
ENERGY: 200000 0.0000 0.0000 0.0000 0.0000 -14253.6296 2566.6229 0.0000 0.0000 353.4078 -11333.5990 60.8634 -11687.0067 -11333.1373 60.8634 1442.3509 1505.7163 27911.9962 1442.3509 1505.7163
ENERGY: 300000 0.0000 0.0000 0.0000 0.0000 -13971.6046 2388.9581 0.0000 0.0000 531.9552 -11050.6913 91.6126 -11582.6464 -11049.0613 89.9934 203.0391 236.0965 28263.9628 5.5257 5.4711
TCL: Running 100000 steps at 120 kelvin.
TCL: Setting parameter langevinTemp to 120
TCL: Running for 100000 steps
ETITLE: TS BOND ANGLE DIHED IMPRP ELECT VDW BOUNDARY MISC KINETIC TOTAL TEMP POTENTIAL TOTAL3 TEMPAVG PRESSURE GPRESSURE VOLUME PRESSAVG GPRESSAVG
ENERGY: 300000 0.0000 0.0000 0.0000 0.0000 -13971.6046 2388.9581 0.0000 0.0000 531.7069 -11050.9396 91.5698 -11582.6464 -11049.8416 91.5698 191.2994 236.1283 28263.9628 191.2994 236.1283
ENERGY: 400000 0.0000 0.0000 0.0000 0.0000 -13705.9086 2285.5179 0.0000 0.0000 703.0446 -10717.3461 121.0774 -11420.3907 -10715.3585 120.2350 -62.7084 -7.2873 28366.2070 3.6961 3.6185
TCL: Running 100000 steps at 150 kelvin.
TCL: Setting parameter langevinTemp to 150
TCL: Running for 100000 steps
ETITLE: TS BOND ANGLE DIHED IMPRP ELECT VDW BOUNDARY MISC KINETIC TOTAL TEMP POTENTIAL TOTAL3 TEMPAVG PRESSURE GPRESSURE VOLUME PRESSAVG GPRESSAVG
ENERGY: 400000 0.0000 0.0000 0.0000 0.0000 -13705.9086 2285.5179 0.0000 0.0000 702.7072 -10717.6835 121.0193 -11420.3907 -10716.0943 121.0193 -67.4245 -6.9125 28366.2070 -67.4245 -6.9125
ENERGY: 500000 0.0000 0.0000 0.0000 0.0000 -13411.9206 2140.1798 0.0000 0.0000 845.4505 -10426.2903 145.6023 -11271.7408 -10424.3315 149.8496 -884.4373 -834.7279 28753.8839 4.3364 4.3390
TCL: Running 100000 steps at 180 kelvin.
TCL: Setting parameter langevinTemp to 180
TCL: Running for 100000 steps
ETITLE: TS BOND ANGLE DIHED IMPRP ELECT VDW BOUNDARY MISC KINETIC TOTAL TEMP POTENTIAL TOTAL3 TEMPAVG PRESSURE GPRESSURE VOLUME PRESSAVG GPRESSAVG
ENERGY: 500000 0.0000 0.0000 0.0000 0.0000 -13411.9206 2140.1798 0.0000 0.0000 845.0254 -10426.7154 145.5291 -11271.7408 -10425.0996 145.5291 -889.7477 -835.5014 28753.8839 -889.7477 -835.5014
ENERGY: 600000 0.0000 0.0000 0.0000 0.0000 -13030.8212 2067.5128 0.0000 0.0000 1028.6651 -9934.6433 177.1553 -10963.3083 -9932.6289 180.1805 -401.2334 -321.6718 28773.0737 4.3792 4.4435
TCL: Running 100000 steps at 210 kelvin.
TCL: Setting parameter langevinTemp to 210
TCL: Running for 100000 steps
ETITLE: TS BOND ANGLE DIHED IMPRP ELECT VDW BOUNDARY MISC KINETIC TOTAL TEMP POTENTIAL TOTAL3 TEMPAVG PRESSURE GPRESSURE VOLUME PRESSAVG GPRESSAVG
ENERGY: 600000 0.0000 0.0000 0.0000 0.0000 -13030.8212 2067.5128 0.0000 0.0000 1028.1339 -9935.1744 177.0638 -10963.3083 -9933.2226 177.0638 -388.3631 -321.5019 28773.0737 -388.3631 -321.5019
ENERGY: 700000 0.0000 0.0000 0.0000 0.0000 -12383.9980 1837.5861 0.0000 0.0000 1242.3817 -9304.0302 213.9613 -10546.4119 -9301.2746 210.1887 -386.9947 -332.5380 28565.9583 4.1249 3.9903
TCL: Running 100000 steps at 240 kelvin.
TCL: Setting parameter langevinTemp to 240
TCL: Running for 100000 steps
ETITLE: TS BOND ANGLE DIHED IMPRP ELECT VDW BOUNDARY MISC KINETIC TOTAL TEMP POTENTIAL TOTAL3 TEMPAVG PRESSURE GPRESSURE VOLUME PRESSAVG GPRESSAVG
ENERGY: 700000 0.0000 0.0000 0.0000 0.0000 -12383.9980 1837.5861 0.0000 0.0000 1241.7818 -9304.6301 213.8580 -10546.4119 -9302.2971 213.8580 -404.5943 -332.9098 28565.9583 -404.5943 -332.9098
ENERGY: 800000 0.0000 0.0000 0.0000 0.0000 -11752.6321 1670.4099 0.0000 0.0000 1396.9203 -8685.3019 240.5757 -10082.2222 -8681.0491 239.5532 -484.8752 -467.1260 29311.2843 2.5619 2.7439
TCL: Running 100000 steps at 270 kelvin.
TCL: Setting parameter langevinTemp to 270
TCL: Running for 100000 steps
ETITLE: TS BOND ANGLE DIHED IMPRP ELECT VDW BOUNDARY MISC KINETIC TOTAL TEMP POTENTIAL TOTAL3 TEMPAVG PRESSURE GPRESSURE VOLUME PRESSAVG GPRESSAVG
ENERGY: 800000 0.0000 0.0000 0.0000 0.0000 -11752.6321 1670.4099 0.0000 0.0000 1396.2524 -8685.9698 240.4607 -10082.2222 -8683.4915 240.4607 -553.4842 -466.2328 29311.2843 -553.4842 -466.2328
ENERGY: 900000 0.0000 0.0000 0.0000 0.0000 -11114.5902 1545.6445 0.0000 0.0000 1557.9484 -8010.9973 268.3078 -9568.9456 -8008.5801 269.5751 -140.3273 -25.7873 30046.5782 4.4543 4.4762
TCL: Running 1000000 steps at 300 kelvin.
TCL: Setting parameter langevinTemp to 300
TCL: Running for 1000000 steps
ETITLE: TS BOND ANGLE DIHED IMPRP ELECT VDW BOUNDARY MISC KINETIC TOTAL TEMP POTENTIAL TOTAL3 TEMPAVG PRESSURE GPRESSURE VOLUME PRESSAVG GPRESSAVG
ENERGY: 900000 0.0000 0.0000 0.0000 0.0000 -11114.5902 1545.6445 0.0000 0.0000 1557.1500 -8011.7957 268.1703 -9568.9456 -8009.3836 268.1703 -118.9037 -26.4952 30046.5782 -118.9037 -26.4952
ENERGY: 1100000 0.0000 0.0000 0.0000 0.0000 -10839.8552 1492.5043 0.0000 0.0000 1695.6554 -7651.6955 292.0235 -9347.3509 -7649.9422 299.8489 481.3973 498.0346 30068.0241 2.1382 2.0279
ENERGY: 1300000 0.0000 0.0000 0.0000 0.0000 -10703.3754 1422.1139 0.0000 0.0000 1780.0610 -7501.2005 306.5597 -9281.2615 -7498.5670 300.1344 -223.5553 -177.8108 30614.9385 3.8394 3.7416
ENERGY: 1500000 0.0000 0.0000 0.0000 0.0000 -10640.1574 1422.4858 0.0000 0.0000 1742.8073 -7474.8643 300.1439 -9217.6716 -7472.2830 300.6082 11.7061 144.6820 30221.2002 2.0973 1.9215
ENERGY: 1700000 0.0000 0.0000 0.0000 0.0000 -10678.5553 1447.1168 0.0000 0.0000 1709.6724 -7521.7661 294.4375 -9231.4386 -7518.9924 300.2578 190.5751 264.5709 30302.8345 1.7818 1.6541
ENERGY: 1900000 0.0000 0.0000 0.0000 0.0000 -10767.7465 1456.0053 0.0000 0.0000 1726.5152 -7585.2261 297.3381 -9311.7413 -7580.5564 300.7299 63.9242 107.3356 30367.7830 2.3398 2.2722
TCL: Exiting due to exit command.
