Info: SIMULATION PARAMETERS:
Info: TIMESTEP               2
Info: NUMBER OF STEPS        0
Info: STEPS PER CYCLE        10
Info: PERIODIC CELL BASIS 1  36.281 0 0
Info: PERIODIC CELL BASIS 2  0 35.411 0
Info: PERIODIC CELL BASIS 3  0 0 34.68
Info: PERIODIC CELL CENTER   0 0 0
Info: WRAPPING WATERS AROUND PERIODIC BOUNDARIES ON OUTPUT.
Info: WRAPPING ALL CLUSTERS AROUND PERIODIC BOUNDARIES ON OUTPUT.
Info: FIRST LDB TIMESTEP     50
Info: LAST LDB TIMESTEP     -1
Info: HOM BACKGROUND SCALING 1
Info: PME BACKGROUND SCALING 1
Info: MIN ATOMS PER PATCH    40
Info: EMPTY PATCH LOAD       40 ATOMS
Info: INITIAL TEMPERATURE    300
Info: CENTER OF MASS MOVING INITIALLY? NO
Info: DIELECTRIC             1
Info: EXCLUDE                SCALED ONE-FOUR
Info: 1-4 ELECTROSTATICS SCALED BY 0.833333
Info: MODIFIED 1-4 VDW PARAMETERS WILL BE USED
Info: DCD FILENAME           mobley_1838110_equil.dcd
Info: DCD FREQUENCY          100000
Info: DCD FIRST STEP         100000
Info: DCD FILE WILL CONTAIN UNIT CELL DATA
Info: XST FILENAME           mobley_1838110_equil.xst
Info: XST FREQUENCY          100000
Info: NO VELOCITY DCD OUTPUT
Info: NO FORCE DCD OUTPUT
Info: OUTPUT FILENAME        mobley_1838110_equil
Info: BINARY OUTPUT FILES WILL BE USED
Info: RESTART FILENAME       mobley_1838110_equil.restart
Info: RESTART FREQUENCY      100000
Info: BINARY RESTART FILES WILL BE USED
Info: CUTOFF                 9
Info: PAIRLIST DISTANCE      11
Info: PAIRLIST SHRINK RATE   0.01
Info: PAIRLIST GROW RATE     0.01
Info: PAIRLIST TRIGGER       0.3
Info: PAIRLISTS PER CYCLE    2
Info: PAIRLISTS ENABLED
Info: MARGIN                 8
Info: HYDROGEN GROUP CUTOFF  2.5
Info: PATCH DIMENSION        21.5
Info: ENERGY OUTPUT STEPS    100000
Info: ENERGY EVALUATION STEPS    100000
Info: OUTPUT ENERGY PRECISION 4
Info: CROSSTERM ENERGY INCLUDED IN DIHEDRAL
Info: TIMING OUTPUT STEPS    1000000
Info: PRESSURE OUTPUT STEPS  100000
Info: FIXED ATOMS ACTIVE
Info: LANGEVIN DYNAMICS ACTIVE
Info: LANGEVIN TEMPERATURE   30
Info: LANGEVIN USING BBK INTEGRATOR
Info: LANGEVIN DAMPING COEFFICIENT IS 1 INVERSE PS
Info: LANGEVIN DYNAMICS APPLIED TO HYDROGENS
Info: LANGEVIN PISTON PRESSURE CONTROL ACTIVE
Info:        TARGET PRESSURE IS 1.01325 BAR
Info:     OSCILLATION PERIOD IS 50 FS
Info:             DECAY TIME IS 25 FS
Info:     PISTON TEMPERATURE IS 300 K
Info:       PRESSURE CONTROL IS GROUP-BASED
Info:    INITIAL STRAIN RATE IS 0 0 0
Info:       CELL FLUCTUATION IS ISOTROPIC
Info: PARTICLE MESH EWALD (PME) ACTIVE
Info: PME TOLERANCE               1e-06
Info: PME EWALD COEFFICIENT       0.348832
Info: PME INTERPOLATION ORDER     4
Info: PME GRID DIMENSIONS         40 36 36
Info: PME MAXIMUM GRID SPACING    1
Info: FULL ELECTROSTATIC EVALUATION FREQUENCY      2
Info: USING VERLET I (r-RESPA) MTS SCHEME.
Info: C1 SPLITTING OF LONG RANGE ELECTROSTATICS
Info: PLACING ATOMS IN PATCHES BY HYDROGEN GROUPS
Info: RIGID BONDS TO HYDROGEN : ALL
Info:         ERROR TOLERANCE : 1e-08
Info:          MAX ITERATIONS : 100
Info: RIGID WATER USING SETTLE ALGORITHM
Info: RANDOM NUMBER SEED     1744720844
Info: USE HYDROGEN BONDS?    NO
Info: Using AMBER format force field!
Info: AMBER PARM FILE        mobley_1838110.prmtop
Info: COORDINATE PDB         mobley_1838110.pdb
Info: Exclusions will be read from PARM file!
Info: SCNB (VDW SCALING)     2
Info: USING ARITHMETIC MEAN TO COMBINE L-J SIGMA PARAMETERS
Info: BINARY COORDINATES     mobley_1838110_min.coor
Info: SUMMARY OF PARAMETERS:
Info: 5 BONDS
Info: 5 ANGLES
Info:   5 HARMONIC
Info:   0 COSINE-BASED
Info: 4 DIHEDRAL
Info: 0 IMPROPER
Info: 0 CROSSTERM
Info: 0 VDW
Info: 15 VDW_PAIRS
Info: 0 NBTHOLE_PAIRS
Info: STRUCTURE SUMMARY:
Info: 2921 ATOMS
Info: 2920 BONDS
Info: 12 ANGLES
Info: 13 DIHEDRALS
Info: 0 IMPROPERS
Info: 0 CROSSTERMS
Info: 2941 EXCLUSIONS
Info: 8 FIXED ATOMS
Info: 2913 RIGID BONDS
Info: 0 RIGID BONDS BETWEEN FIXED ATOMS
Info: 5826 DEGREES OF FREEDOM
Info: 979 HYDROGEN GROUPS
Info: 3 ATOMS IN LARGEST HYDROGEN GROUP
Info: 979 MIGRATION GROUPS
Info: 3 ATOMS IN LARGEST MIGRATION GROUP
Info: 8 HYDROGEN GROUPS WITH ALL ATOMS FIXED
Info: TOTAL MASS = 17680.9 amu
Info: TOTAL CHARGE = 0.000100017 e
Info: MASS DENSITY = 0.658972 g/cm^3
Info: ATOM DENSITY = 0.0655594 atoms/A^3
Info: ADDED 0 IMPLICIT EXCLUSIONS
Info: NONBONDED TABLE R-SQUARED SPACING: 0.0625
Info: NONBONDED TABLE SIZE: 705 POINTS
Info: REMOVING COM VELOCITY -0.0485358 0.045922 0.0483231
TCL: Running for 100000 steps
ETITLE: TS BOND ANGLE DIHED IMPRP ELECT VDW BOUNDARY MISC KINETIC TOTAL TEMP POTENTIAL TOTAL3 TEMPAVG PRESSURE GPRESSURE VOLUME PRESSAVG GPRESSAVG
ENERGY: 0 0.0000 0.0000 0.0000 0.0000 -13551.9695 2373.6277 0.0000 0.0000 1745.4581 -9432.8838 301.5292 -11178.3418 -9432.5549 301.5292 428.8220 460.8627 44555.0083 428.8220 460.8627
ENERGY: 100000 0.0000 0.0000 0.0000 0.0000 -14027.9697 2393.2734 0.0000 0.0000 175.5479 -11459.1484 30.3260 -11634.6963 -11458.7732 30.8884 -459.7797 -403.0167 29138.5912 4.4491 4.5179
TCL: Running 100000 steps at 60 kelvin.
TCL: Setting parameter langevinTemp to 60
TCL: Running for 100000 steps
ETITLE: TS BOND ANGLE DIHED IMPRP ELECT VDW BOUNDARY MISC KINETIC TOTAL TEMP POTENTIAL TOTAL3 TEMPAVG PRESSURE GPRESSURE VOLUME PRESSAVG GPRESSAVG
ENERGY: 100000 0.0000 0.0000 0.0000 0.0000 -14027.9697 2393.2734 0.0000 0.0000 175.4628 -11459.2336 30.3113 -11634.6963 -11458.8584 30.3113 -465.7266 -403.0801 29138.5912 -465.7266 -403.0801
ENERGY: 200000 0.0000 0.0000 0.0000 0.0000 -13992.2010 2396.2398 0.0000 0.0000 346.9204 -11249.0409 59.9307 -11595.9612 -11248.0300 59.8908 -451.2648 -363.9797 29323.8353 4.1471 4.1257
TCL: Running 100000 steps at 90 kelvin.
TCL: Setting parameter langevinTemp to 90
TCL: Running for 100000 steps
ETITLE: TS BOND ANGLE DIHED IMPRP ELECT VDW BOUNDARY MISC KINETIC TOTAL TEMP POTENTIAL TOTAL3 TEMPAVG PRESSURE GPRESSURE VOLUME PRESSAVG GPRESSAVG
ENERGY: 200000 0.0000 0.0000 0.0000 0.0000 -13992.2010 2396.2398 0.0000 0.0000 346.7448 -11249.2164 59.9004 -11595.9612 -11248.4247 59.9004 -429.7810 -364.2790 29323.8353 -429.7810 -364.2790
ENERGY: 300000 0.0000 0.0000 0.0000 0.0000 -13925.3419 2442.9143 0.0000 0.0000 517.1471 -10965.2805 89.3375 -11482.4276 -10963.4635 89.9099 412.5397 445.9239 29188.3269 3.9922 4.0803
TCL: Running 100000 steps at 120 kelvin.
TCL: Setting parameter langevinTemp to 120
TCL: Running for 100000 steps
ETITLE: TS BOND ANGLE DIHED IMPRP ELECT VDW BOUNDARY MISC KINETIC TOTAL TEMP POTENTIAL TOTAL3 TEMPAVG PRESSURE GPRESSURE VOLUME PRESSAVG GPRESSAVG
ENERGY: 300000 0.0000 0.0000 0.0000 0.0000 -13925.3419 2442.9143 0.0000 0.0000 516.8727 -10965.5549 89.2901 -11482.4276 -10964.6547 89.2901 397.9298 446.3027 29188.3269 397.9298 446.3027
ENERGY: 400000 0.0000 0.0000 0.0000 0.0000 -13722.6480 2377.6612 0.0000 0.0000 696.7076 -10648.2792 120.3568 -11344.9868 -10646.8318 119.8601 515.7213 636.7783 28862.4960 4.3649 4.3374
TCL: Running 100000 steps at 150 kelvin.
TCL: Setting parameter langevinTemp to 150
TCL: Running for 100000 steps
ETITLE: TS BOND ANGLE DIHED IMPRP ELECT VDW BOUNDARY MISC KINETIC TOTAL TEMP POTENTIAL TOTAL3 TEMPAVG PRESSURE GPRESSURE VOLUME PRESSAVG GPRESSAVG
ENERGY: 400000 0.0000 0.0000 0.0000 0.0000 -13722.6480 2377.6612 0.0000 0.0000 696.3667 -10648.6202 120.2979 -11344.9868 -10647.3448 120.2979 583.9494 636.7871 28862.4960 583.9494 636.7871
ENERGY: 500000 0.0000 0.0000 0.0000 0.0000 -13493.2807 2300.4622 0.0000 0.0000 862.1913 -10330.6272 148.9442 -11192.8185 -10328.9691 149.7901 457.5855 501.6411 28916.1988 3.5133 3.6661
TCL: Running 100000 steps at 180 kelvin.
TCL: Setting parameter langevinTemp to 180
TCL: Running for 100000 steps
ETITLE: TS BOND ANGLE DIHED IMPRP ELECT VDW BOUNDARY MISC KINETIC TOTAL TEMP POTENTIAL TOTAL3 TEMPAVG PRESSURE GPRESSURE VOLUME PRESSAVG GPRESSAVG
ENERGY: 500000 0.0000 0.0000 0.0000 0.0000 -13493.2807 2300.4622 0.0000 0.0000 861.7599 -10331.0586 148.8697 -11192.8185 -10329.0515 148.8697 439.7114 500.8715 28916.1988 439.7114 500.8715
ENERGY: 600000 0.0000 0.0000 0.0000 0.0000 -12936.3991 2018.8997 0.0000 0.0000 1049.7364 -9867.7631 181.3427 -10917.4995 -9863.5339 180.1023 -773.9681 -659.3177 28881.2559 2.4919 2.3606
TCL: Running 100000 steps at 210 kelvin.
TCL: Setting parameter langevinTemp to 210
TCL: Running for 100000 steps
ETITLE: TS BOND ANGLE DIHED IMPRP ELECT VDW BOUNDARY MISC KINETIC TOTAL TEMP POTENTIAL TOTAL3 TEMPAVG PRESSURE GPRESSURE VOLUME PRESSAVG GPRESSAVG
ENERGY: 600000 0.0000 0.0000 0.0000 0.0000 -12936.3991 2018.8997 0.0000 0.0000 1049.2295 -9868.2700 181.2552 -10917.4995 -9866.0508 181.2552 -709.6366 -657.7730 28881.2559 -709.6366 -657.7730
ENERGY: 700000 0.0000 0.0000 0.0000 0.0000 -12311.1589 1860.3340 0.0000 0.0000 1200.9861 -9249.8387 207.4712 -10450.8249 -9247.6648 209.9012 -146.2868 -22.1015 28571.1277 3.4028 3.4764
TCL: Running 100000 steps at 240 kelvin.
TCL: Setting parameter langevinTemp to 240
TCL: Running for 100000 steps
ETITLE: TS BOND ANGLE DIHED IMPRP ELECT VDW BOUNDARY MISC KINETIC TOTAL TEMP POTENTIAL TOTAL3 TEMPAVG PRESSURE GPRESSURE VOLUME PRESSAVG GPRESSAVG
ENERGY: 700000 0.0000 0.0000 0.0000 0.0000 -12311.1589 1860.3340 0.0000 0.0000 1200.3603 -9250.4645 207.3631 -10450.8249 -9248.9740 207.3631 -97.4266 -21.5719 28571.1277 -97.4266 -21.5719
ENERGY: 800000 0.0000 0.0000 0.0000 0.0000 -11826.4416 1799.2194 0.0000 0.0000 1391.8246 -8635.3976 240.4387 -10027.2222 -8633.2640 240.3154 835.1943 948.7683 28782.1487 3.0577 3.0609
TCL: Running 100000 steps at 270 kelvin.
TCL: Setting parameter langevinTemp to 270
TCL: Running for 100000 steps
ETITLE: TS BOND ANGLE DIHED IMPRP ELECT VDW BOUNDARY MISC KINETIC TOTAL TEMP POTENTIAL TOTAL3 TEMPAVG PRESSURE GPRESSURE VOLUME PRESSAVG GPRESSAVG
ENERGY: 800000 0.0000 0.0000 0.0000 0.0000 -11826.4416 1799.2194 0.0000 0.0000 1391.1310 -8636.0912 240.3189 -10027.2222 -8634.2280 240.3189 869.9409 948.1160 28782.1487 869.9409 948.1160
ENERGY: 900000 0.0000 0.0000 0.0000 0.0000 -11182.7193 1591.9566 0.0000 0.0000 1584.6688 -8006.0939 273.7527 -9590.7628 -8003.0514 270.2349 252.5639 338.9137 29605.2692 3.1292 3.0513
TCL: Running 1000000 steps at 300 kelvin.
TCL: Setting parameter langevinTemp to 300
TCL: Running for 1000000 steps
ETITLE: TS BOND ANGLE DIHED IMPRP ELECT VDW BOUNDARY MISC KINETIC TOTAL TEMP POTENTIAL TOTAL3 TEMPAVG PRESSURE GPRESSURE VOLUME PRESSAVG GPRESSAVG
ENERGY: 900000 0.0000 0.0000 0.0000 0.0000 -11182.7193 1591.9566 0.0000 0.0000 1583.8690 -8006.8938 273.6145 -9590.7628 -8004.4842 273.6145 251.8457 338.5241 29605.2692 251.8457 338.5241
ENERGY: 1100000 0.0000 0.0000 0.0000 0.0000 -10568.9429 1360.6609 0.0000 0.0000 1824.8445 -7383.4375 315.2432 -9208.2820 -7378.1512 300.1363 -459.9902 -386.7507 30072.0374 2.5492 2.4744
ENERGY: 1300000 0.0000 0.0000 0.0000 0.0000 -10539.3965 1353.6768 0.0000 0.0000 1741.3240 -7444.3956 300.8150 -9185.7196 -7441.1544 300.2063 -545.7400 -536.3052 30521.1883 4.1500 4.3510
ENERGY: 1500000 0.0000 0.0000 0.0000 0.0000 -10578.8491 1391.2562 0.0000 0.0000 1735.9853 -7451.6076 299.8927 -9187.5929 -7449.1420 300.4833 -105.3222 -9.5014 29885.0608 2.5711 2.5751
ENERGY: 1700000 0.0000 0.0000 0.0000 0.0000 -10552.7355 1310.7047 0.0000 0.0000 1754.1083 -7487.9226 303.0235 -9242.0308 -7480.9482 299.3510 -951.1800 -864.5344 30034.0227 2.1091 2.0272
ENERGY: 1900000 0.0000 0.0000 0.0000 0.0000 -10615.6692 1432.8856 0.0000 0.0000 1699.5698 -7483.2138 293.6019 -9182.7836 -7482.7153 299.7971 236.8872 295.5382 29894.9847 2.4042 2.4011
TCL: Exiting due to exit command.
