Info: SIMULATION PARAMETERS:
Info: TIMESTEP               2
Info: NUMBER OF STEPS        0
Info: STEPS PER CYCLE        10
Info: PERIODIC CELL BASIS 1  36.592 0 0
Info: PERIODIC CELL BASIS 2  0 36.762 0
Info: PERIODIC CELL BASIS 3  0 0 32.993
Info: PERIODIC CELL CENTER   0 0 0
Info: WRAPPING WATERS AROUND PERIODIC BOUNDARIES ON OUTPUT.
Info: WRAPPING ALL CLUSTERS AROUND PERIODIC BOUNDARIES ON OUTPUT.
Info: FIRST LDB TIMESTEP     50
Info: LAST LDB TIMESTEP     -1
Info: HOM BACKGROUND SCALING 1
Info: PME BACKGROUND SCALING 1
Info: MIN ATOMS PER PATCH    40
Info: EMPTY PATCH LOAD       40 ATOMS
Info: INITIAL TEMPERATURE    300
Info: CENTER OF MASS MOVING INITIALLY? NO
Info: DIELECTRIC             1
Info: EXCLUDE                SCALED ONE-FOUR
Info: 1-4 ELECTROSTATICS SCALED BY 0.833333
Info: MODIFIED 1-4 VDW PARAMETERS WILL BE USED
Info: DCD FILENAME           mobley_7200804_equil.dcd
Info: DCD FREQUENCY          100000
Info: DCD FIRST STEP         100000
Info: DCD FILE WILL CONTAIN UNIT CELL DATA
Info: XST FILENAME           mobley_7200804_equil.xst
Info: XST FREQUENCY          100000
Info: NO VELOCITY DCD OUTPUT
Info: NO FORCE DCD OUTPUT
Info: OUTPUT FILENAME        mobley_7200804_equil
Info: BINARY OUTPUT FILES WILL BE USED
Info: RESTART FILENAME       mobley_7200804_equil.restart
Info: RESTART FREQUENCY      100000
Info: BINARY RESTART FILES WILL BE USED
Info: CUTOFF                 9
Info: PAIRLIST DISTANCE      11
Info: PAIRLIST SHRINK RATE   0.01
Info: PAIRLIST GROW RATE     0.01
Info: PAIRLIST TRIGGER       0.3
Info: PAIRLISTS PER CYCLE    2
Info: PAIRLISTS ENABLED
Info: MARGIN                 8
Info: HYDROGEN GROUP CUTOFF  2.5
Info: PATCH DIMENSION        21.5
Info: ENERGY OUTPUT STEPS    100000
Info: ENERGY EVALUATION STEPS    100000
Info: OUTPUT ENERGY PRECISION 4
Info: CROSSTERM ENERGY INCLUDED IN DIHEDRAL
Info: TIMING OUTPUT STEPS    1000000
Info: PRESSURE OUTPUT STEPS  100000
Info: FIXED ATOMS ACTIVE
Info: LANGEVIN DYNAMICS ACTIVE
Info: LANGEVIN TEMPERATURE   30
Info: LANGEVIN USING BBK INTEGRATOR
Info: LANGEVIN DAMPING COEFFICIENT IS 1 INVERSE PS
Info: LANGEVIN DYNAMICS APPLIED TO HYDROGENS
Info: LANGEVIN PISTON PRESSURE CONTROL ACTIVE
Info:        TARGET PRESSURE IS 1.01325 BAR
Info:     OSCILLATION PERIOD IS 50 FS
Info:             DECAY TIME IS 25 FS
Info:     PISTON TEMPERATURE IS 300 K
Info:       PRESSURE CONTROL IS GROUP-BASED
Info:    INITIAL STRAIN RATE IS 0 0 0
Info:       CELL FLUCTUATION IS ISOTROPIC
Info: PARTICLE MESH EWALD (PME) ACTIVE
Info: PME TOLERANCE               1e-06
Info: PME EWALD COEFFICIENT       0.348832
Info: PME INTERPOLATION ORDER     4
Info: PME GRID DIMENSIONS         40 40 36
Info: PME MAXIMUM GRID SPACING    1
Info: FULL ELECTROSTATIC EVALUATION FREQUENCY      2
Info: USING VERLET I (r-RESPA) MTS SCHEME.
Info: C1 SPLITTING OF LONG RANGE ELECTROSTATICS
Info: PLACING ATOMS IN PATCHES BY HYDROGEN GROUPS
Info: RIGID BONDS TO HYDROGEN : ALL
Info:         ERROR TOLERANCE : 1e-08
Info:          MAX ITERATIONS : 100
Info: RIGID WATER USING SETTLE ALGORITHM
Info: RANDOM NUMBER SEED     1743729264
Info: USE HYDROGEN BONDS?    NO
Info: Using AMBER format force field!
Info: AMBER PARM FILE        mobley_7200804.prmtop
Info: COORDINATE PDB         mobley_7200804.pdb
Info: Exclusions will be read from PARM file!
Info: SCNB (VDW SCALING)     2
Info: USING ARITHMETIC MEAN TO COMBINE L-J SIGMA PARAMETERS
Info: BINARY COORDINATES     mobley_7200804_min.coor
Info: SUMMARY OF PARAMETERS:
Info: 7 BONDS
Info: 5 ANGLES
Info:   5 HARMONIC
Info:   0 COSINE-BASED
Info: 3 DIHEDRAL
Info: 0 IMPROPER
Info: 0 CROSSTERM
Info: 0 VDW
Info: 21 VDW_PAIRS
Info: 0 NBTHOLE_PAIRS
Info: STRUCTURE SUMMARY:
Info: 2941 ATOMS
Info: 2941 BONDS
Info: 19 ANGLES
Info: 32 DIHEDRALS
Info: 0 IMPROPERS
Info: 0 CROSSTERMS
Info: 2983 EXCLUSIONS
Info: 13 FIXED ATOMS
Info: 2933 RIGID BONDS
Info: 5 RIGID BONDS BETWEEN FIXED ATOMS
Info: 5856 DEGREES OF FREEDOM
Info: 984 HYDROGEN GROUPS
Info: 3 ATOMS IN LARGEST HYDROGEN GROUP
Info: 984 MIGRATION GROUPS
Info: 3 ATOMS IN LARGEST MIGRATION GROUP
Info: 8 HYDROGEN GROUPS WITH ALL ATOMS FIXED
Info: TOTAL MASS = 17695.7 amu
Info: TOTAL CHARGE = -0.000100017 e
Info: MASS DENSITY = 0.662095 g/cm^3
Info: ATOM DENSITY = 0.0662656 atoms/A^3
Info: ADDED 0 IMPLICIT EXCLUSIONS
Info: NONBONDED TABLE R-SQUARED SPACING: 0.0625
Info: NONBONDED TABLE SIZE: 705 POINTS
Info: REMOVING COM VELOCITY 0.0905859 -0.239697 0.11672
TCL: Running for 100000 steps
ETITLE: TS BOND ANGLE DIHED IMPRP ELECT VDW BOUNDARY MISC KINETIC TOTAL TEMP POTENTIAL TOTAL3 TEMPAVG PRESSURE GPRESSURE VOLUME PRESSAVG GPRESSAVG
ENERGY: 0 0.0000 0.0000 0.0000 0.0000 -13678.0741 2416.8781 0.0000 0.0000 1748.0505 -9513.1456 300.4300 -11261.1961 -9512.7856 300.4300 389.8113 425.2533 44382.0221 389.8113 425.2533
ENERGY: 100000 0.0000 0.0000 0.0000 0.0000 -14413.0973 2637.9180 0.0000 0.0000 173.6947 -11601.4845 29.8522 -11775.1792 -11601.2410 30.8990 1231.5827 1252.8266 28617.3262 3.8221 3.7365
TCL: Running 100000 steps at 60 kelvin.
TCL: Setting parameter langevinTemp to 60
TCL: Running for 100000 steps
ETITLE: TS BOND ANGLE DIHED IMPRP ELECT VDW BOUNDARY MISC KINETIC TOTAL TEMP POTENTIAL TOTAL3 TEMPAVG PRESSURE GPRESSURE VOLUME PRESSAVG GPRESSAVG
ENERGY: 100000 0.0000 0.0000 0.0000 0.0000 -14413.0973 2637.9180 0.0000 0.0000 173.6067 -11601.5725 29.8370 -11775.1792 -11601.2777 29.8370 1201.4185 1252.5341 28617.3262 1201.4185 1252.5341
ENERGY: 200000 0.0000 0.0000 0.0000 0.0000 -14000.4379 2330.7004 0.0000 0.0000 347.4376 -11322.2998 59.7126 -11669.7375 -11321.3013 59.8639 -895.5189 -796.2751 28727.3239 5.0777 5.0784
TCL: Running 100000 steps at 90 kelvin.
TCL: Setting parameter langevinTemp to 90
TCL: Running for 100000 steps
ETITLE: TS BOND ANGLE DIHED IMPRP ELECT VDW BOUNDARY MISC KINETIC TOTAL TEMP POTENTIAL TOTAL3 TEMPAVG PRESSURE GPRESSURE VOLUME PRESSAVG GPRESSAVG
ENERGY: 200000 0.0000 0.0000 0.0000 0.0000 -14000.4379 2330.7004 0.0000 0.0000 347.2645 -11322.4730 59.6829 -11669.7375 -11321.6068 59.6829 -855.3413 -796.2798 28727.3239 -855.3413 -796.2798
ENERGY: 300000 0.0000 0.0000 0.0000 0.0000 -13989.9169 2414.7532 0.0000 0.0000 525.1424 -11050.0212 90.2540 -11575.1636 -11048.6986 89.8168 330.6850 397.2334 28424.0019 3.5241 3.4417
TCL: Running 100000 steps at 120 kelvin.
TCL: Setting parameter langevinTemp to 120
TCL: Running for 100000 steps
ETITLE: TS BOND ANGLE DIHED IMPRP ELECT VDW BOUNDARY MISC KINETIC TOTAL TEMP POTENTIAL TOTAL3 TEMPAVG PRESSURE GPRESSURE VOLUME PRESSAVG GPRESSAVG
ENERGY: 300000 0.0000 0.0000 0.0000 0.0000 -13989.9169 2414.7532 0.0000 0.0000 524.8796 -11050.2840 90.2088 -11575.1636 -11049.2701 90.2088 343.5217 396.8754 28424.0019 343.5217 396.8754
ENERGY: 400000 0.0000 0.0000 0.0000 0.0000 -13680.1790 2242.4546 0.0000 0.0000 715.7366 -10721.9878 123.0106 -11437.7244 -10720.8385 120.0394 -529.1515 -479.5145 28495.0140 4.5836 4.5733
TCL: Running 100000 steps at 150 kelvin.
TCL: Setting parameter langevinTemp to 150
TCL: Running for 100000 steps
ETITLE: TS BOND ANGLE DIHED IMPRP ELECT VDW BOUNDARY MISC KINETIC TOTAL TEMP POTENTIAL TOTAL3 TEMPAVG PRESSURE GPRESSURE VOLUME PRESSAVG GPRESSAVG
ENERGY: 400000 0.0000 0.0000 0.0000 0.0000 -13680.1790 2242.4546 0.0000 0.0000 715.3848 -10722.3396 122.9501 -11437.7244 -10720.6635 122.9501 -532.4163 -480.3574 28495.0140 -532.4163 -480.3574
ENERGY: 500000 0.0000 0.0000 0.0000 0.0000 -13559.6038 2292.6981 0.0000 0.0000 850.8476 -10416.0581 146.2316 -11266.9057 -10414.2261 150.0401 436.3127 499.1904 28621.8561 5.2619 5.1235
TCL: Running 100000 steps at 180 kelvin.
TCL: Setting parameter langevinTemp to 180
TCL: Running for 100000 steps
ETITLE: TS BOND ANGLE DIHED IMPRP ELECT VDW BOUNDARY MISC KINETIC TOTAL TEMP POTENTIAL TOTAL3 TEMPAVG PRESSURE GPRESSURE VOLUME PRESSAVG GPRESSAVG
ENERGY: 500000 0.0000 0.0000 0.0000 0.0000 -13559.6038 2292.6981 0.0000 0.0000 850.4151 -10416.4907 146.1572 -11266.9057 -10414.6789 146.1572 450.3816 498.6530 28621.8561 450.3816 498.6530
ENERGY: 600000 0.0000 0.0000 0.0000 0.0000 -13107.5927 2151.8987 0.0000 0.0000 1064.2410 -9891.4530 182.9066 -10955.6939 -9889.2761 179.9742 408.5199 511.6121 28771.4355 3.0852 3.1120
TCL: Running 100000 steps at 210 kelvin.
TCL: Setting parameter langevinTemp to 210
TCL: Running for 100000 steps
ETITLE: TS BOND ANGLE DIHED IMPRP ELECT VDW BOUNDARY MISC KINETIC TOTAL TEMP POTENTIAL TOTAL3 TEMPAVG PRESSURE GPRESSURE VOLUME PRESSAVG GPRESSAVG
ENERGY: 600000 0.0000 0.0000 0.0000 0.0000 -13107.5927 2151.8987 0.0000 0.0000 1063.7172 -9891.9768 182.8165 -10955.6939 -9890.0266 182.8165 457.8518 512.0932 28771.4355 457.8518 512.0932
ENERGY: 700000 0.0000 0.0000 0.0000 0.0000 -12467.9953 1902.2498 0.0000 0.0000 1205.3650 -9360.3804 207.1609 -10565.7454 -9356.0773 209.6073 -2.4165 110.7103 28569.7180 3.2729 3.1829
TCL: Running 100000 steps at 240 kelvin.
TCL: Setting parameter langevinTemp to 240
TCL: Running for 100000 steps
ETITLE: TS BOND ANGLE DIHED IMPRP ELECT VDW BOUNDARY MISC KINETIC TOTAL TEMP POTENTIAL TOTAL3 TEMPAVG PRESSURE GPRESSURE VOLUME PRESSAVG GPRESSAVG
ENERGY: 700000 0.0000 0.0000 0.0000 0.0000 -12467.9953 1902.2498 0.0000 0.0000 1204.7753 -9360.9702 207.0596 -10565.7454 -9358.2257 207.0596 23.7482 111.2292 28569.7180 23.7482 111.2292
ENERGY: 800000 0.0000 0.0000 0.0000 0.0000 -11677.0644 1654.9810 0.0000 0.0000 1423.6353 -8598.4481 244.6741 -10022.0833 -8595.1513 239.7874 -159.6854 -48.5285 28830.8570 3.6694 3.6050
TCL: Running 100000 steps at 270 kelvin.
TCL: Setting parameter langevinTemp to 270
TCL: Running for 100000 steps
ETITLE: TS BOND ANGLE DIHED IMPRP ELECT VDW BOUNDARY MISC KINETIC TOTAL TEMP POTENTIAL TOTAL3 TEMPAVG PRESSURE GPRESSURE VOLUME PRESSAVG GPRESSAVG
ENERGY: 800000 0.0000 0.0000 0.0000 0.0000 -11677.0644 1654.9810 0.0000 0.0000 1422.8923 -8599.1910 244.5464 -10022.0833 -8596.4305 244.5464 -134.0682 -47.5539 28830.8570 -134.0682 -47.5539
ENERGY: 900000 0.0000 0.0000 0.0000 0.0000 -11040.3824 1453.1678 0.0000 0.0000 1616.1876 -7971.0270 277.7673 -9587.2146 -7968.0819 269.9071 -626.9946 -505.7521 29569.0932 3.4311 3.5847
TCL: Running 1000000 steps at 300 kelvin.
TCL: Setting parameter langevinTemp to 300
TCL: Running for 1000000 steps
ETITLE: TS BOND ANGLE DIHED IMPRP ELECT VDW BOUNDARY MISC KINETIC TOTAL TEMP POTENTIAL TOTAL3 TEMPAVG PRESSURE GPRESSURE VOLUME PRESSAVG GPRESSAVG
ENERGY: 900000 0.0000 0.0000 0.0000 0.0000 -11040.3824 1453.1678 0.0000 0.0000 1615.4379 -7971.7766 277.6384 -9587.2146 -7969.6114 277.6384 -585.4773 -503.7533 29569.0932 -585.4773 -503.7533
ENERGY: 1100000 0.0000 0.0000 0.0000 0.0000 -10662.4349 1408.8556 0.0000 0.0000 1709.5376 -7544.0418 293.8109 -9253.5794 -7540.6443 300.4719 68.5550 42.5545 30252.5676 4.4954 4.3197
ENERGY: 1300000 0.0000 0.0000 0.0000 0.0000 -10807.5116 1527.7229 0.0000 0.0000 1760.0721 -7519.7166 302.4961 -9279.7888 -7518.3968 300.5692 724.2316 868.6987 30108.6860 3.4133 3.4390
ENERGY: 1500000 0.0000 0.0000 0.0000 0.0000 -10903.5821 1593.4045 0.0000 0.0000 1725.9485 -7584.2292 296.6314 -9310.1777 -7582.2133 300.1535 989.0765 1119.9545 30266.4390 2.1847 2.1441
ENERGY: 1700000 0.0000 0.0000 0.0000 0.0000 -10852.5471 1484.4079 0.0000 0.0000 1716.4204 -7651.7189 294.9939 -9368.1393 -7646.9864 299.9373 179.4221 254.2744 30189.7345 2.4557 2.2453
ENERGY: 1900000 0.0000 0.0000 0.0000 0.0000 -10760.5103 1442.9363 0.0000 0.0000 1725.8440 -7591.7299 296.6135 -9317.5739 -7588.5066 300.4211 209.7364 300.8498 29863.4355 3.1411 3.2096
TCL: Exiting due to exit command.
