Info: SIMULATION PARAMETERS:
Info: TIMESTEP               2
Info: NUMBER OF STEPS        0
Info: STEPS PER CYCLE        10
Info: PERIODIC CELL BASIS 1  38.861 0 0
Info: PERIODIC CELL BASIS 2  0 34.26 0
Info: PERIODIC CELL BASIS 3  0 0 33.876
Info: PERIODIC CELL CENTER   0 0 0
Info: WRAPPING WATERS AROUND PERIODIC BOUNDARIES ON OUTPUT.
Info: WRAPPING ALL CLUSTERS AROUND PERIODIC BOUNDARIES ON OUTPUT.
Info: FIRST LDB TIMESTEP     50
Info: LAST LDB TIMESTEP     -1
Info: HOM BACKGROUND SCALING 1
Info: PME BACKGROUND SCALING 1
Info: MIN ATOMS PER PATCH    40
Info: EMPTY PATCH LOAD       40 ATOMS
Info: INITIAL TEMPERATURE    300
Info: CENTER OF MASS MOVING INITIALLY? NO
Info: DIELECTRIC             1
Info: EXCLUDE                SCALED ONE-FOUR
Info: 1-4 ELECTROSTATICS SCALED BY 0.833333
Info: MODIFIED 1-4 VDW PARAMETERS WILL BE USED
Info: DCD FILENAME           mobley_430089_equil.dcd
Info: DCD FREQUENCY          100000
Info: DCD FIRST STEP         100000
Info: DCD FILE WILL CONTAIN UNIT CELL DATA
Info: XST FILENAME           mobley_430089_equil.xst
Info: XST FREQUENCY          100000
Info: NO VELOCITY DCD OUTPUT
Info: NO FORCE DCD OUTPUT
Info: OUTPUT FILENAME        mobley_430089_equil
Info: BINARY OUTPUT FILES WILL BE USED
Info: RESTART FILENAME       mobley_430089_equil.restart
Info: RESTART FREQUENCY      100000
Info: BINARY RESTART FILES WILL BE USED
Info: CUTOFF                 9
Info: PAIRLIST DISTANCE      11
Info: PAIRLIST SHRINK RATE   0.01
Info: PAIRLIST GROW RATE     0.01
Info: PAIRLIST TRIGGER       0.3
Info: PAIRLISTS PER CYCLE    2
Info: PAIRLISTS ENABLED
Info: MARGIN                 8
Info: HYDROGEN GROUP CUTOFF  2.5
Info: PATCH DIMENSION        21.5
Info: ENERGY OUTPUT STEPS    100000
Info: ENERGY EVALUATION STEPS    100000
Info: OUTPUT ENERGY PRECISION 4
Info: CROSSTERM ENERGY INCLUDED IN DIHEDRAL
Info: TIMING OUTPUT STEPS    1000000
Info: PRESSURE OUTPUT STEPS  100000
Info: FIXED ATOMS ACTIVE
Info: LANGEVIN DYNAMICS ACTIVE
Info: LANGEVIN TEMPERATURE   30
Info: LANGEVIN USING BBK INTEGRATOR
Info: LANGEVIN DAMPING COEFFICIENT IS 1 INVERSE PS
Info: LANGEVIN DYNAMICS APPLIED TO HYDROGENS
Info: LANGEVIN PISTON PRESSURE CONTROL ACTIVE
Info:        TARGET PRESSURE IS 1.01325 BAR
Info:     OSCILLATION PERIOD IS 50 FS
Info:             DECAY TIME IS 25 FS
Info:     PISTON TEMPERATURE IS 300 K
Info:       PRESSURE CONTROL IS GROUP-BASED
Info:    INITIAL STRAIN RATE IS 0 0 0
Info:       CELL FLUCTUATION IS ISOTROPIC
Info: PARTICLE MESH EWALD (PME) ACTIVE
Info: PME TOLERANCE               1e-06
Info: PME EWALD COEFFICIENT       0.348832
Info: PME INTERPOLATION ORDER     4
Info: PME GRID DIMENSIONS         40 36 36
Info: PME MAXIMUM GRID SPACING    1
Info: FULL ELECTROSTATIC EVALUATION FREQUENCY      2
Info: USING VERLET I (r-RESPA) MTS SCHEME.
Info: C1 SPLITTING OF LONG RANGE ELECTROSTATICS
Info: PLACING ATOMS IN PATCHES BY HYDROGEN GROUPS
Info: RIGID BONDS TO HYDROGEN : ALL
Info:         ERROR TOLERANCE : 1e-08
Info:          MAX ITERATIONS : 100
Info: RIGID WATER USING SETTLE ALGORITHM
Info: RANDOM NUMBER SEED     1743900962
Info: USE HYDROGEN BONDS?    NO
Info: Using AMBER format force field!
Info: AMBER PARM FILE        mobley_430089.prmtop
Info: COORDINATE PDB         mobley_430089.pdb
Info: Exclusions will be read from PARM file!
Info: SCNB (VDW SCALING)     2
Info: USING ARITHMETIC MEAN TO COMBINE L-J SIGMA PARAMETERS
Info: BINARY COORDINATES     mobley_430089_min.coor
Info: SUMMARY OF PARAMETERS:
Info: 7 BONDS
Info: 7 ANGLES
Info:   7 HARMONIC
Info:   0 COSINE-BASED
Info: 4 DIHEDRAL
Info: 0 IMPROPER
Info: 0 CROSSTERM
Info: 0 VDW
Info: 21 VDW_PAIRS
Info: 0 NBTHOLE_PAIRS
Info: STRUCTURE SUMMARY:
Info: 2986 ATOMS
Info: 2985 BONDS
Info: 20 ANGLES
Info: 22 DIHEDRALS
Info: 0 IMPROPERS
Info: 0 CROSSTERMS
Info: 3027 EXCLUSIONS
Info: 13 FIXED ATOMS
Info: 2981 RIGID BONDS
Info: 8 RIGID BONDS BETWEEN FIXED ATOMS
Info: 5946 DEGREES OF FREEDOM
Info: 996 HYDROGEN GROUPS
Info: 4 ATOMS IN LARGEST HYDROGEN GROUP
Info: 996 MIGRATION GROUPS
Info: 4 ATOMS IN LARGEST MIGRATION GROUP
Info: 5 HYDROGEN GROUPS WITH ALL ATOMS FIXED
Info: TOTAL MASS = 17922 amu
Info: TOTAL CHARGE = 9.99928e-05 e
Info: MASS DENSITY = 0.65986 g/cm^3
Info: ATOM DENSITY = 0.0662058 atoms/A^3
Info: ADDED 0 IMPLICIT EXCLUSIONS
Info: NONBONDED TABLE R-SQUARED SPACING: 0.0625
Info: NONBONDED TABLE SIZE: 705 POINTS
Info: REMOVING COM VELOCITY -0.0256764 0.0992346 0.022538
TCL: Running for 100000 steps
ETITLE: TS BOND ANGLE DIHED IMPRP ELECT VDW BOUNDARY MISC KINETIC TOTAL TEMP POTENTIAL TOTAL3 TEMPAVG PRESSURE GPRESSURE VOLUME PRESSAVG GPRESSAVG
ENERGY: 0 0.0000 0.0000 0.0000 0.0000 -13858.9136 2443.0401 0.0000 0.0000 1760.1875 -9655.6861 297.9370 -11415.8736 -9655.3439 297.9370 512.5713 539.2612 45101.7564 512.5713 539.2612
ENERGY: 100000 0.0000 0.0000 0.0000 0.0000 -14437.1753 2539.6015 0.0000 0.0000 180.5247 -11717.0491 30.5564 -11897.5738 -11716.6918 30.9374 324.5941 394.8007 29081.0133 4.1271 4.0883
TCL: Running 100000 steps at 60 kelvin.
TCL: Setting parameter langevinTemp to 60
TCL: Running for 100000 steps
ETITLE: TS BOND ANGLE DIHED IMPRP ELECT VDW BOUNDARY MISC KINETIC TOTAL TEMP POTENTIAL TOTAL3 TEMPAVG PRESSURE GPRESSURE VOLUME PRESSAVG GPRESSAVG
ENERGY: 100000 0.0000 0.0000 0.0000 0.0000 -14437.1753 2539.6015 0.0000 0.0000 180.4366 -11717.1372 30.5415 -11897.5738 -11716.7835 30.5415 332.4769 394.6711 29081.0133 332.4769 394.6711
ENERGY: 200000 0.0000 0.0000 0.0000 0.0000 -14175.8455 2351.4446 0.0000 0.0000 355.7284 -11468.6725 60.2121 -11824.4009 -11467.4552 59.8189 -915.8794 -847.6335 29048.6235 5.3964 5.4198
TCL: Running 100000 steps at 90 kelvin.
TCL: Setting parameter langevinTemp to 90
TCL: Running for 100000 steps
ETITLE: TS BOND ANGLE DIHED IMPRP ELECT VDW BOUNDARY MISC KINETIC TOTAL TEMP POTENTIAL TOTAL3 TEMPAVG PRESSURE GPRESSURE VOLUME PRESSAVG GPRESSAVG
ENERGY: 200000 0.0000 0.0000 0.0000 0.0000 -14175.8455 2351.4446 0.0000 0.0000 355.5469 -11468.8540 60.1814 -11824.4009 -11468.0518 60.1814 -919.3915 -847.2695 29048.6235 -919.3915 -847.2695
ENERGY: 300000 0.0000 0.0000 0.0000 0.0000 -14076.9699 2373.9437 0.0000 0.0000 521.3504 -11181.6758 88.2460 -11703.0263 -11179.8019 89.8556 -188.3619 -156.4708 28969.1645 3.9986 4.0388
TCL: Running 100000 steps at 120 kelvin.
TCL: Setting parameter langevinTemp to 120
TCL: Running for 100000 steps
ETITLE: TS BOND ANGLE DIHED IMPRP ELECT VDW BOUNDARY MISC KINETIC TOTAL TEMP POTENTIAL TOTAL3 TEMPAVG PRESSURE GPRESSURE VOLUME PRESSAVG GPRESSAVG
ENERGY: 300000 0.0000 0.0000 0.0000 0.0000 -14076.9699 2373.9437 0.0000 0.0000 521.0835 -11181.9428 88.2008 -11703.0263 -11180.9397 88.2008 -211.1329 -155.9286 28969.1645 -211.1329 -155.9286
ENERGY: 400000 0.0000 0.0000 0.0000 0.0000 -13863.0678 2275.1616 0.0000 0.0000 696.7305 -10891.1757 117.9316 -11587.9062 -10890.7307 119.8643 -618.9163 -522.7479 29110.1701 4.7650 4.7434
TCL: Running 100000 steps at 150 kelvin.
TCL: Setting parameter langevinTemp to 150
TCL: Running for 100000 steps
ETITLE: TS BOND ANGLE DIHED IMPRP ELECT VDW BOUNDARY MISC KINETIC TOTAL TEMP POTENTIAL TOTAL3 TEMPAVG PRESSURE GPRESSURE VOLUME PRESSAVG GPRESSAVG
ENERGY: 400000 0.0000 0.0000 0.0000 0.0000 -13863.0678 2275.1616 0.0000 0.0000 696.3893 -10891.5168 117.8739 -11587.9062 -10890.0020 117.8739 -584.8371 -523.9885 29110.1701 -584.8371 -523.9885
ENERGY: 500000 0.0000 0.0000 0.0000 0.0000 -13804.9882 2379.6951 0.0000 0.0000 877.6676 -10547.6255 148.5578 -11425.2930 -10545.3622 149.8709 659.7181 667.9020 29451.5079 4.1137 4.0787
TCL: Running 100000 steps at 180 kelvin.
TCL: Setting parameter langevinTemp to 180
TCL: Running for 100000 steps
ETITLE: TS BOND ANGLE DIHED IMPRP ELECT VDW BOUNDARY MISC KINETIC TOTAL TEMP POTENTIAL TOTAL3 TEMPAVG PRESSURE GPRESSURE VOLUME PRESSAVG GPRESSAVG
ENERGY: 500000 0.0000 0.0000 0.0000 0.0000 -13804.9882 2379.6951 0.0000 0.0000 877.2165 -10548.0765 148.4815 -11425.2930 -10546.5760 148.4815 621.0474 668.1732 29451.5079 621.0474 668.1732
ENERGY: 600000 0.0000 0.0000 0.0000 0.0000 -13278.5293 2162.3045 0.0000 0.0000 1068.9369 -10047.2880 180.9329 -11116.2249 -10046.3739 179.9450 106.6040 164.6812 29322.5900 2.9254 2.8648
TCL: Running 100000 steps at 210 kelvin.
TCL: Setting parameter langevinTemp to 210
TCL: Running for 100000 steps
ETITLE: TS BOND ANGLE DIHED IMPRP ELECT VDW BOUNDARY MISC KINETIC TOTAL TEMP POTENTIAL TOTAL3 TEMPAVG PRESSURE GPRESSURE VOLUME PRESSAVG GPRESSAVG
ENERGY: 600000 0.0000 0.0000 0.0000 0.0000 -13278.5293 2162.3045 0.0000 0.0000 1068.3890 -10047.8359 180.8402 -11116.2249 -10045.8246 180.8402 104.7094 163.4585 29322.5900 104.7094 163.4585
ENERGY: 700000 0.0000 0.0000 0.0000 0.0000 -12614.9804 1952.0881 0.0000 0.0000 1245.9136 -9416.9788 210.8887 -10662.8923 -9415.6482 209.5666 296.3502 395.5294 29191.4698 3.7350 3.7159
TCL: Running 100000 steps at 240 kelvin.
TCL: Setting parameter langevinTemp to 240
TCL: Running for 100000 steps
ETITLE: TS BOND ANGLE DIHED IMPRP ELECT VDW BOUNDARY MISC KINETIC TOTAL TEMP POTENTIAL TOTAL3 TEMPAVG PRESSURE GPRESSURE VOLUME PRESSAVG GPRESSAVG
ENERGY: 700000 0.0000 0.0000 0.0000 0.0000 -12614.9804 1952.0881 0.0000 0.0000 1245.2811 -9417.6112 210.7817 -10662.8923 -9415.8925 210.7817 310.1528 393.4328 29191.4698 310.1528 393.4328
ENERGY: 800000 0.0000 0.0000 0.0000 0.0000 -12004.5660 1772.6530 0.0000 0.0000 1414.7433 -8817.1697 239.4656 -10231.9129 -8814.8748 239.3176 283.5608 402.2676 29210.2835 4.5188 4.7303
TCL: Running 100000 steps at 270 kelvin.
TCL: Setting parameter langevinTemp to 270
TCL: Running for 100000 steps
ETITLE: TS BOND ANGLE DIHED IMPRP ELECT VDW BOUNDARY MISC KINETIC TOTAL TEMP POTENTIAL TOTAL3 TEMPAVG PRESSURE GPRESSURE VOLUME PRESSAVG GPRESSAVG
ENERGY: 800000 0.0000 0.0000 0.0000 0.0000 -12004.5660 1772.6530 0.0000 0.0000 1414.0407 -8817.8723 239.3467 -10231.9129 -8816.0458 239.3467 318.5763 403.2094 29210.2835 318.5763 403.2094
ENERGY: 900000 0.0000 0.0000 0.0000 0.0000 -11317.6848 1566.3416 0.0000 0.0000 1592.7433 -8158.5999 269.5946 -9751.3432 -8154.2259 270.5076 324.7755 303.3800 29448.0968 5.2632 5.1041
TCL: Running 1000000 steps at 300 kelvin.
TCL: Setting parameter langevinTemp to 300
TCL: Running for 1000000 steps
ETITLE: TS BOND ANGLE DIHED IMPRP ELECT VDW BOUNDARY MISC KINETIC TOTAL TEMP POTENTIAL TOTAL3 TEMPAVG PRESSURE GPRESSURE VOLUME PRESSAVG GPRESSAVG
ENERGY: 900000 0.0000 0.0000 0.0000 0.0000 -11317.6848 1566.3416 0.0000 0.0000 1591.9435 -8159.3997 269.4593 -9751.3432 -8157.1141 269.4593 233.4046 303.1122 29448.0968 233.4046 303.1122
ENERGY: 1100000 0.0000 0.0000 0.0000 0.0000 -10887.9574 1499.7769 0.0000 0.0000 1836.5043 -7551.6762 310.8547 -9388.1805 -7548.1329 300.4544 381.1924 500.1474 30684.1598 3.9247 4.0330
ENERGY: 1300000 0.0000 0.0000 0.0000 0.0000 -10836.9446 1438.1422 0.0000 0.0000 1774.0223 -7624.7802 300.2787 -9398.8024 -7622.5937 299.4368 -204.9151 -70.7133 30945.4460 4.3673 4.1155
ENERGY: 1500000 0.0000 0.0000 0.0000 0.0000 -10890.7500 1479.2429 0.0000 0.0000 1807.8899 -7603.6173 306.0113 -9411.5072 -7599.4603 300.3785 162.8740 225.7189 30850.4946 2.8069 2.6692
ENERGY: 1700000 0.0000 0.0000 0.0000 0.0000 -10877.8119 1456.0874 0.0000 0.0000 1750.0893 -7671.6352 296.2277 -9421.7245 -7668.6818 300.7763 85.4655 108.8134 30192.3582 3.1570 3.0000
ENERGY: 1900000 0.0000 0.0000 0.0000 0.0000 -10856.5239 1443.0432 0.0000 0.0000 1734.4493 -7679.0314 293.5804 -9413.4807 -7677.0705 299.9881 -151.9238 -69.5007 30484.0180 3.5786 3.5939
TCL: Exiting due to exit command.
