Info: SIMULATION PARAMETERS:
Info: TIMESTEP               2
Info: NUMBER OF STEPS        0
Info: STEPS PER CYCLE        10
Info: PERIODIC CELL BASIS 1  37.435 0 0
Info: PERIODIC CELL BASIS 2  0 35.779 0
Info: PERIODIC CELL BASIS 3  0 0 31.349
Info: PERIODIC CELL CENTER   0 0 0
Info: WRAPPING WATERS AROUND PERIODIC BOUNDARIES ON OUTPUT.
Info: WRAPPING ALL CLUSTERS AROUND PERIODIC BOUNDARIES ON OUTPUT.
Info: FIRST LDB TIMESTEP     50
Info: LAST LDB TIMESTEP     -1
Info: HOM BACKGROUND SCALING 1
Info: PME BACKGROUND SCALING 1
Info: MIN ATOMS PER PATCH    40
Info: EMPTY PATCH LOAD       40 ATOMS
Info: INITIAL TEMPERATURE    300
Info: CENTER OF MASS MOVING INITIALLY? NO
Info: DIELECTRIC             1
Info: EXCLUDE                SCALED ONE-FOUR
Info: 1-4 ELECTROSTATICS SCALED BY 0.833333
Info: MODIFIED 1-4 VDW PARAMETERS WILL BE USED
Info: DCD FILENAME           mobley_7814642_equil.dcd
Info: DCD FREQUENCY          100000
Info: DCD FIRST STEP         100000
Info: DCD FILE WILL CONTAIN UNIT CELL DATA
Info: XST FILENAME           mobley_7814642_equil.xst
Info: XST FREQUENCY          100000
Info: NO VELOCITY DCD OUTPUT
Info: NO FORCE DCD OUTPUT
Info: OUTPUT FILENAME        mobley_7814642_equil
Info: BINARY OUTPUT FILES WILL BE USED
Info: RESTART FILENAME       mobley_7814642_equil.restart
Info: RESTART FREQUENCY      100000
Info: BINARY RESTART FILES WILL BE USED
Info: CUTOFF                 9
Info: PAIRLIST DISTANCE      11
Info: PAIRLIST SHRINK RATE   0.01
Info: PAIRLIST GROW RATE     0.01
Info: PAIRLIST TRIGGER       0.3
Info: PAIRLISTS PER CYCLE    2
Info: PAIRLISTS ENABLED
Info: MARGIN                 8
Info: HYDROGEN GROUP CUTOFF  2.5
Info: PATCH DIMENSION        21.5
Info: ENERGY OUTPUT STEPS    100000
Info: ENERGY EVALUATION STEPS    100000
Info: OUTPUT ENERGY PRECISION 4
Info: CROSSTERM ENERGY INCLUDED IN DIHEDRAL
Info: TIMING OUTPUT STEPS    1000000
Info: PRESSURE OUTPUT STEPS  100000
Info: FIXED ATOMS ACTIVE
Info: LANGEVIN DYNAMICS ACTIVE
Info: LANGEVIN TEMPERATURE   30
Info: LANGEVIN USING BBK INTEGRATOR
Info: LANGEVIN DAMPING COEFFICIENT IS 1 INVERSE PS
Info: LANGEVIN DYNAMICS APPLIED TO HYDROGENS
Info: LANGEVIN PISTON PRESSURE CONTROL ACTIVE
Info:        TARGET PRESSURE IS 1.01325 BAR
Info:     OSCILLATION PERIOD IS 50 FS
Info:             DECAY TIME IS 25 FS
Info:     PISTON TEMPERATURE IS 300 K
Info:       PRESSURE CONTROL IS GROUP-BASED
Info:    INITIAL STRAIN RATE IS 0 0 0
Info:       CELL FLUCTUATION IS ISOTROPIC
Info: PARTICLE MESH EWALD (PME) ACTIVE
Info: PME TOLERANCE               1e-06
Info: PME EWALD COEFFICIENT       0.348832
Info: PME INTERPOLATION ORDER     4
Info: PME GRID DIMENSIONS         40 36 32
Info: PME MAXIMUM GRID SPACING    1
Info: FULL ELECTROSTATIC EVALUATION FREQUENCY      2
Info: USING VERLET I (r-RESPA) MTS SCHEME.
Info: C1 SPLITTING OF LONG RANGE ELECTROSTATICS
Info: PLACING ATOMS IN PATCHES BY HYDROGEN GROUPS
Info: RIGID BONDS TO HYDROGEN : ALL
Info:         ERROR TOLERANCE : 1e-08
Info:          MAX ITERATIONS : 100
Info: RIGID WATER USING SETTLE ALGORITHM
Info: RANDOM NUMBER SEED     1743727263
Info: USE HYDROGEN BONDS?    NO
Info: Using AMBER format force field!
Info: AMBER PARM FILE        mobley_7814642.prmtop
Info: COORDINATE PDB         mobley_7814642.pdb
Info: Exclusions will be read from PARM file!
Info: SCNB (VDW SCALING)     2
Info: USING ARITHMETIC MEAN TO COMBINE L-J SIGMA PARAMETERS
Info: BINARY COORDINATES     mobley_7814642_min.coor
Info: SUMMARY OF PARAMETERS:
Info: 5 BONDS
Info: 3 ANGLES
Info:   3 HARMONIC
Info:   0 COSINE-BASED
Info: 2 DIHEDRAL
Info: 0 IMPROPER
Info: 0 CROSSTERM
Info: 0 VDW
Info: 15 VDW_PAIRS
Info: 0 NBTHOLE_PAIRS
Info: STRUCTURE SUMMARY:
Info: 2916 ATOMS
Info: 2916 BONDS
Info: 18 ANGLES
Info: 30 DIHEDRALS
Info: 0 IMPROPERS
Info: 0 CROSSTERMS
Info: 2955 EXCLUSIONS
Info: 12 FIXED ATOMS
Info: 2907 RIGID BONDS
Info: 3 RIGID BONDS BETWEEN FIXED ATOMS
Info: 5808 DEGREES OF FREEDOM
Info: 977 HYDROGEN GROUPS
Info: 3 ATOMS IN LARGEST HYDROGEN GROUP
Info: 977 MIGRATION GROUPS
Info: 3 ATOMS IN LARGEST MIGRATION GROUP
Info: 9 HYDROGEN GROUPS WITH ALL ATOMS FIXED
Info: TOTAL MASS = 17620.9 amu
Info: TOTAL CHARGE = -3.72529e-09 e
Info: MASS DENSITY = 0.69688 g/cm^3
Info: ATOM DENSITY = 0.0694477 atoms/A^3
Info: ADDED 0 IMPLICIT EXCLUSIONS
Info: NONBONDED TABLE R-SQUARED SPACING: 0.0625
Info: NONBONDED TABLE SIZE: 705 POINTS
Info: REMOVING COM VELOCITY 0.0086158 -0.104859 0.0396303
TCL: Running for 100000 steps
ETITLE: TS BOND ANGLE DIHED IMPRP ELECT VDW BOUNDARY MISC KINETIC TOTAL TEMP POTENTIAL TOTAL3 TEMPAVG PRESSURE GPRESSURE VOLUME PRESSAVG GPRESSAVG
ENERGY: 0 0.0000 0.0000 0.0000 0.0000 -13481.2685 2331.5815 0.0000 0.0000 1776.4295 -9373.2574 307.8306 -11149.6870 -9372.9118 307.8306 144.0738 180.9445 41988.4388 144.0738 180.9445
ENERGY: 100000 0.0000 0.0000 0.0000 0.0000 -13983.2502 2412.6867 0.0000 0.0000 170.4264 -11400.1371 29.5325 -11570.5635 -11399.5039 30.8958 -377.2036 -332.7268 29561.2995 3.7685 3.7602
TCL: Running 100000 steps at 60 kelvin.
TCL: Setting parameter langevinTemp to 60
TCL: Running for 100000 steps
ETITLE: TS BOND ANGLE DIHED IMPRP ELECT VDW BOUNDARY MISC KINETIC TOTAL TEMP POTENTIAL TOTAL3 TEMPAVG PRESSURE GPRESSURE VOLUME PRESSAVG GPRESSAVG
ENERGY: 100000 0.0000 0.0000 0.0000 0.0000 -13983.2502 2412.6867 0.0000 0.0000 170.3406 -11400.2229 29.5177 -11570.5635 -11399.8348 29.5177 -381.9037 -332.5686 29561.2995 -381.9037 -332.5686
ENERGY: 200000 0.0000 0.0000 0.0000 0.0000 -13884.0184 2369.4406 0.0000 0.0000 353.0197 -11161.5581 61.1734 -11514.5779 -11160.7995 59.8922 -412.7198 -372.2680 29287.2127 2.3141 2.3202
TCL: Running 100000 steps at 90 kelvin.
TCL: Setting parameter langevinTemp to 90
TCL: Running for 100000 steps
ETITLE: TS BOND ANGLE DIHED IMPRP ELECT VDW BOUNDARY MISC KINETIC TOTAL TEMP POTENTIAL TOTAL3 TEMPAVG PRESSURE GPRESSURE VOLUME PRESSAVG GPRESSAVG
ENERGY: 200000 0.0000 0.0000 0.0000 0.0000 -13884.0184 2369.4406 0.0000 0.0000 352.8496 -11161.7282 61.1439 -11514.5779 -11160.9911 61.1439 -427.6371 -372.1483 29287.2127 -427.6371 -372.1483
ENERGY: 300000 0.0000 0.0000 0.0000 0.0000 -13601.7280 2181.9952 0.0000 0.0000 506.7613 -10912.9714 87.8147 -11419.7328 -10911.4963 90.1186 -1508.1889 -1474.9513 29155.8426 4.5687 4.5193
TCL: Running 100000 steps at 120 kelvin.
TCL: Setting parameter langevinTemp to 120
TCL: Running for 100000 steps
ETITLE: TS BOND ANGLE DIHED IMPRP ELECT VDW BOUNDARY MISC KINETIC TOTAL TEMP POTENTIAL TOTAL3 TEMPAVG PRESSURE GPRESSURE VOLUME PRESSAVG GPRESSAVG
ENERGY: 300000 0.0000 0.0000 0.0000 0.0000 -13601.7280 2181.9952 0.0000 0.0000 506.4946 -10913.2382 87.7685 -11419.7328 -10912.3222 87.7685 -1524.4421 -1474.1741 29155.8426 -1524.4421 -1474.1741
ENERGY: 400000 0.0000 0.0000 0.0000 0.0000 -13777.7343 2435.3279 0.0000 0.0000 707.1326 -10635.2738 122.5363 -11342.4065 -10633.3915 120.2392 1031.6213 1042.6333 28475.7013 4.3466 4.3324
TCL: Running 100000 steps at 150 kelvin.
TCL: Setting parameter langevinTemp to 150
TCL: Running for 100000 steps
ETITLE: TS BOND ANGLE DIHED IMPRP ELECT VDW BOUNDARY MISC KINETIC TOTAL TEMP POTENTIAL TOTAL3 TEMPAVG PRESSURE GPRESSURE VOLUME PRESSAVG GPRESSAVG
ENERGY: 400000 0.0000 0.0000 0.0000 0.0000 -13777.7343 2435.3279 0.0000 0.0000 706.7724 -10635.6341 122.4738 -11342.4065 -10634.1589 122.4738 1007.2774 1042.7586 28475.7013 1007.2774 1042.7586
ENERGY: 500000 0.0000 0.0000 0.0000 0.0000 -13368.2581 2168.0321 0.0000 0.0000 839.9151 -10360.3110 145.5456 -11200.2260 -10358.9133 149.7886 -505.8087 -478.7592 28420.9936 2.8629 2.8319
TCL: Running 100000 steps at 180 kelvin.
TCL: Setting parameter langevinTemp to 180
TCL: Running for 100000 steps
ETITLE: TS BOND ANGLE DIHED IMPRP ELECT VDW BOUNDARY MISC KINETIC TOTAL TEMP POTENTIAL TOTAL3 TEMPAVG PRESSURE GPRESSURE VOLUME PRESSAVG GPRESSAVG
ENERGY: 500000 0.0000 0.0000 0.0000 0.0000 -13368.2581 2168.0321 0.0000 0.0000 839.4897 -10360.7363 145.4719 -11200.2260 -10358.7368 145.4719 -524.8364 -479.6103 28420.9936 -524.8364 -479.6103
ENERGY: 600000 0.0000 0.0000 0.0000 0.0000 -13108.0406 2167.3234 0.0000 0.0000 1055.1460 -9885.5711 182.8422 -10940.7172 -9882.1525 180.2649 361.6608 425.4302 28465.7155 3.0339 2.9532
TCL: Running 100000 steps at 210 kelvin.
TCL: Setting parameter langevinTemp to 210
TCL: Running for 100000 steps
ETITLE: TS BOND ANGLE DIHED IMPRP ELECT VDW BOUNDARY MISC KINETIC TOTAL TEMP POTENTIAL TOTAL3 TEMPAVG PRESSURE GPRESSURE VOLUME PRESSAVG GPRESSAVG
ENERGY: 600000 0.0000 0.0000 0.0000 0.0000 -13108.0406 2167.3234 0.0000 0.0000 1054.6298 -9886.0874 182.7527 -10940.7172 -9884.4077 182.7527 379.9168 427.2978 28465.7155 379.9168 427.2978
ENERGY: 700000 0.0000 0.0000 0.0000 0.0000 -12496.2550 1997.7891 0.0000 0.0000 1197.7238 -9300.7421 207.5489 -10498.4659 -9296.6014 209.3535 741.6450 859.4695 28325.7199 4.7478 4.5726
TCL: Running 100000 steps at 240 kelvin.
TCL: Setting parameter langevinTemp to 240
TCL: Running for 100000 steps
ETITLE: TS BOND ANGLE DIHED IMPRP ELECT VDW BOUNDARY MISC KINETIC TOTAL TEMP POTENTIAL TOTAL3 TEMPAVG PRESSURE GPRESSURE VOLUME PRESSAVG GPRESSAVG
ENERGY: 700000 0.0000 0.0000 0.0000 0.0000 -12496.2550 1997.7891 0.0000 0.0000 1197.1001 -9301.3658 207.4408 -10498.4659 -9298.9712 207.4408 777.7998 860.7237 28325.7199 777.7998 860.7237
ENERGY: 800000 0.0000 0.0000 0.0000 0.0000 -11683.1489 1690.7366 0.0000 0.0000 1367.7174 -8624.6949 237.0064 -9992.4123 -8623.5689 239.7546 -208.9056 -27.6854 28773.8327 2.9111 2.9400
TCL: Running 100000 steps at 270 kelvin.
TCL: Setting parameter langevinTemp to 270
TCL: Running for 100000 steps
ETITLE: TS BOND ANGLE DIHED IMPRP ELECT VDW BOUNDARY MISC KINETIC TOTAL TEMP POTENTIAL TOTAL3 TEMPAVG PRESSURE GPRESSURE VOLUME PRESSAVG GPRESSAVG
ENERGY: 800000 0.0000 0.0000 0.0000 0.0000 -11683.1489 1690.7366 0.0000 0.0000 1367.0099 -8625.4024 236.8838 -9992.4123 -8623.2200 236.8838 -119.4880 -29.1927 28773.8327 -119.4880 -29.1927
ENERGY: 900000 0.0000 0.0000 0.0000 0.0000 -11191.1123 1648.5559 0.0000 0.0000 1598.2290 -7944.3275 276.9509 -9542.5565 -7942.5268 269.9036 1044.5972 1172.2157 29081.2436 3.2305 3.1112
TCL: Running 1000000 steps at 300 kelvin.
TCL: Setting parameter langevinTemp to 300
TCL: Running for 1000000 steps
ETITLE: TS BOND ANGLE DIHED IMPRP ELECT VDW BOUNDARY MISC KINETIC TOTAL TEMP POTENTIAL TOTAL3 TEMPAVG PRESSURE GPRESSURE VOLUME PRESSAVG GPRESSAVG
ENERGY: 900000 0.0000 0.0000 0.0000 0.0000 -11191.1123 1648.5559 0.0000 0.0000 1597.4327 -7945.1237 276.8129 -9542.5565 -7943.1096 276.8129 1073.2570 1170.6877 29081.2436 1073.2570 1170.6877
ENERGY: 1100000 0.0000 0.0000 0.0000 0.0000 -10585.0235 1429.1077 0.0000 0.0000 1708.9489 -7446.9669 296.1371 -9155.9158 -7443.3245 300.1303 4.5717 119.5192 30267.2714 2.4363 2.4213
ENERGY: 1300000 0.0000 0.0000 0.0000 0.0000 -10512.5749 1348.8303 0.0000 0.0000 1704.3226 -7459.4219 295.3355 -9163.7446 -7456.3529 299.9317 -563.1853 -523.5828 30259.1759 3.0309 2.9621
ENERGY: 1500000 0.0000 0.0000 0.0000 0.0000 -10546.8294 1390.5320 0.0000 0.0000 1716.7479 -7439.5495 297.4886 -9156.2974 -7440.0036 300.8014 -170.6671 -127.6988 30216.7762 2.9744 3.0399
ENERGY: 1700000 0.0000 0.0000 0.0000 0.0000 -10616.2168 1401.3081 0.0000 0.0000 1703.8257 -7511.0831 295.2493 -9214.9088 -7507.6201 301.0172 -173.9984 -38.6309 29882.7260 3.0258 2.9441
ENERGY: 1900000 0.0000 0.0000 0.0000 0.0000 -10599.8931 1423.5624 0.0000 0.0000 1760.3857 -7415.9449 305.0504 -9176.3306 -7411.3511 299.8363 144.2038 237.0478 29927.7745 3.4718 3.4782
TCL: Exiting due to exit command.
