Info: SIMULATION PARAMETERS:
Info: TIMESTEP               2
Info: NUMBER OF STEPS        0
Info: STEPS PER CYCLE        10
Info: PERIODIC CELL BASIS 1  37.968 0 0
Info: PERIODIC CELL BASIS 2  0 35.411 0
Info: PERIODIC CELL BASIS 3  0 0 31.855
Info: PERIODIC CELL CENTER   0 0 0
Info: WRAPPING WATERS AROUND PERIODIC BOUNDARIES ON OUTPUT.
Info: WRAPPING ALL CLUSTERS AROUND PERIODIC BOUNDARIES ON OUTPUT.
Info: FIRST LDB TIMESTEP     50
Info: LAST LDB TIMESTEP     -1
Info: HOM BACKGROUND SCALING 1
Info: PME BACKGROUND SCALING 1
Info: MIN ATOMS PER PATCH    40
Info: EMPTY PATCH LOAD       40 ATOMS
Info: INITIAL TEMPERATURE    300
Info: CENTER OF MASS MOVING INITIALLY? NO
Info: DIELECTRIC             1
Info: EXCLUDE                SCALED ONE-FOUR
Info: 1-4 ELECTROSTATICS SCALED BY 0.833333
Info: MODIFIED 1-4 VDW PARAMETERS WILL BE USED
Info: DCD FILENAME           mobley_1189457_equil.dcd
Info: DCD FREQUENCY          100000
Info: DCD FIRST STEP         100000
Info: DCD FILE WILL CONTAIN UNIT CELL DATA
Info: XST FILENAME           mobley_1189457_equil.xst
Info: XST FREQUENCY          100000
Info: NO VELOCITY DCD OUTPUT
Info: NO FORCE DCD OUTPUT
Info: OUTPUT FILENAME        mobley_1189457_equil
Info: BINARY OUTPUT FILES WILL BE USED
Info: RESTART FILENAME       mobley_1189457_equil.restart
Info: RESTART FREQUENCY      100000
Info: BINARY RESTART FILES WILL BE USED
Info: CUTOFF                 9
Info: PAIRLIST DISTANCE      11
Info: PAIRLIST SHRINK RATE   0.01
Info: PAIRLIST GROW RATE     0.01
Info: PAIRLIST TRIGGER       0.3
Info: PAIRLISTS PER CYCLE    2
Info: PAIRLISTS ENABLED
Info: MARGIN                 8
Info: HYDROGEN GROUP CUTOFF  2.5
Info: PATCH DIMENSION        21.5
Info: ENERGY OUTPUT STEPS    100000
Info: ENERGY EVALUATION STEPS    100000
Info: OUTPUT ENERGY PRECISION 4
Info: CROSSTERM ENERGY INCLUDED IN DIHEDRAL
Info: TIMING OUTPUT STEPS    1000000
Info: PRESSURE OUTPUT STEPS  100000
Info: FIXED ATOMS ACTIVE
Info: LANGEVIN DYNAMICS ACTIVE
Info: LANGEVIN TEMPERATURE   30
Info: LANGEVIN USING BBK INTEGRATOR
Info: LANGEVIN DAMPING COEFFICIENT IS 1 INVERSE PS
Info: LANGEVIN DYNAMICS APPLIED TO HYDROGENS
Info: LANGEVIN PISTON PRESSURE CONTROL ACTIVE
Info:        TARGET PRESSURE IS 1.01325 BAR
Info:     OSCILLATION PERIOD IS 50 FS
Info:             DECAY TIME IS 25 FS
Info:     PISTON TEMPERATURE IS 300 K
Info:       PRESSURE CONTROL IS GROUP-BASED
Info:    INITIAL STRAIN RATE IS 0 0 0
Info:       CELL FLUCTUATION IS ISOTROPIC
Info: PARTICLE MESH EWALD (PME) ACTIVE
Info: PME TOLERANCE               1e-06
Info: PME EWALD COEFFICIENT       0.348832
Info: PME INTERPOLATION ORDER     4
Info: PME GRID DIMENSIONS         40 36 32
Info: PME MAXIMUM GRID SPACING    1
Info: FULL ELECTROSTATIC EVALUATION FREQUENCY      2
Info: USING VERLET I (r-RESPA) MTS SCHEME.
Info: C1 SPLITTING OF LONG RANGE ELECTROSTATICS
Info: PLACING ATOMS IN PATCHES BY HYDROGEN GROUPS
Info: RIGID BONDS TO HYDROGEN : ALL
Info:         ERROR TOLERANCE : 1e-08
Info:          MAX ITERATIONS : 100
Info: RIGID WATER USING SETTLE ALGORITHM
Info: RANDOM NUMBER SEED     1744091394
Info: USE HYDROGEN BONDS?    NO
Info: Using AMBER format force field!
Info: AMBER PARM FILE        mobley_1189457.prmtop
Info: COORDINATE PDB         mobley_1189457.pdb
Info: Exclusions will be read from PARM file!
Info: SCNB (VDW SCALING)     2
Info: USING ARITHMETIC MEAN TO COMBINE L-J SIGMA PARAMETERS
Info: BINARY COORDINATES     mobley_1189457_min.coor
Info: SUMMARY OF PARAMETERS:
Info: 7 BONDS
Info: 6 ANGLES
Info:   6 HARMONIC
Info:   0 COSINE-BASED
Info: 4 DIHEDRAL
Info: 0 IMPROPER
Info: 0 CROSSTERM
Info: 0 VDW
Info: 28 VDW_PAIRS
Info: 0 NBTHOLE_PAIRS
Info: STRUCTURE SUMMARY:
Info: 2965 ATOMS
Info: 2965 BONDS
Info: 25 ANGLES
Info: 35 DIHEDRALS
Info: 0 IMPROPERS
Info: 0 CROSSTERMS
Info: 3016 EXCLUSIONS
Info: 16 FIXED ATOMS
Info: 2957 RIGID BONDS
Info: 8 RIGID BONDS BETWEEN FIXED ATOMS
Info: 5898 DEGREES OF FREEDOM
Info: 991 HYDROGEN GROUPS
Info: 4 ATOMS IN LARGEST HYDROGEN GROUP
Info: 991 MIGRATION GROUPS
Info: 4 ATOMS IN LARGEST MIGRATION GROUP
Info: 8 HYDROGEN GROUPS WITH ALL ATOMS FIXED
Info: TOTAL MASS = 17833.9 amu
Info: TOTAL CHARGE = 0.000199981 e
Info: MASS DENSITY = 0.691469 g/cm^3
Info: ATOM DENSITY = 0.0692295 atoms/A^3
Info: ADDED 0 IMPLICIT EXCLUSIONS
Info: NONBONDED TABLE R-SQUARED SPACING: 0.0625
Info: NONBONDED TABLE SIZE: 705 POINTS
Info: REMOVING COM VELOCITY 0.121725 0.0100351 0.0774905
TCL: Running for 100000 steps
ETITLE: TS BOND ANGLE DIHED IMPRP ELECT VDW BOUNDARY MISC KINETIC TOTAL TEMP POTENTIAL TOTAL3 TEMPAVG PRESSURE GPRESSURE VOLUME PRESSAVG GPRESSAVG
ENERGY: 0 0.0000 0.0000 0.0000 0.0000 -13712.6528 2389.3530 0.0000 0.0000 1756.0270 -9567.2728 299.6517 -11323.2998 -9566.9271 299.6517 293.6613 329.0484 42828.5648 293.6613 329.0484
ENERGY: 100000 0.0000 0.0000 0.0000 0.0000 -14417.1182 2584.6267 0.0000 0.0000 173.4152 -11659.0763 29.5919 -11832.4915 -11658.7621 30.8358 709.3690 746.3366 28853.4242 3.7511 3.6951
TCL: Running 100000 steps at 60 kelvin.
TCL: Setting parameter langevinTemp to 60
TCL: Running for 100000 steps
ETITLE: TS BOND ANGLE DIHED IMPRP ELECT VDW BOUNDARY MISC KINETIC TOTAL TEMP POTENTIAL TOTAL3 TEMPAVG PRESSURE GPRESSURE VOLUME PRESSAVG GPRESSAVG
ENERGY: 100000 0.0000 0.0000 0.0000 0.0000 -14417.1182 2584.6267 0.0000 0.0000 173.3237 -11659.1678 29.5763 -11832.4915 -11658.7891 29.5763 700.4208 746.1318 28853.4242 700.4208 746.1318
ENERGY: 200000 0.0000 0.0000 0.0000 0.0000 -14194.7430 2460.2330 0.0000 0.0000 340.3526 -11394.1574 58.0784 -11734.5100 -11393.4390 59.8213 -54.2713 -33.5896 29201.1381 3.0054 2.9891
TCL: Running 100000 steps at 90 kelvin.
TCL: Setting parameter langevinTemp to 90
TCL: Running for 100000 steps
ETITLE: TS BOND ANGLE DIHED IMPRP ELECT VDW BOUNDARY MISC KINETIC TOTAL TEMP POTENTIAL TOTAL3 TEMPAVG PRESSURE GPRESSURE VOLUME PRESSAVG GPRESSAVG
ENERGY: 200000 0.0000 0.0000 0.0000 0.0000 -14194.7430 2460.2330 0.0000 0.0000 340.1790 -11394.3311 58.0488 -11734.5100 -11393.6991 58.0488 -83.7519 -33.9843 29201.1381 -83.7519 -33.9843
ENERGY: 300000 0.0000 0.0000 0.0000 0.0000 -13950.2851 2327.4891 0.0000 0.0000 517.4424 -11105.3536 88.2973 -11622.7961 -11103.7523 89.9595 -562.5486 -532.5387 28969.2436 4.5678 4.5823
TCL: Running 100000 steps at 120 kelvin.
TCL: Setting parameter langevinTemp to 120
TCL: Running for 100000 steps
ETITLE: TS BOND ANGLE DIHED IMPRP ELECT VDW BOUNDARY MISC KINETIC TOTAL TEMP POTENTIAL TOTAL3 TEMPAVG PRESSURE GPRESSURE VOLUME PRESSAVG GPRESSAVG
ENERGY: 300000 0.0000 0.0000 0.0000 0.0000 -13950.2851 2327.4891 0.0000 0.0000 517.1705 -11105.6256 88.2509 -11622.7961 -11104.3773 88.2509 -581.1958 -532.6380 28969.2436 -581.1958 -532.6380
ENERGY: 400000 0.0000 0.0000 0.0000 0.0000 -13703.6814 2212.2915 0.0000 0.0000 701.2181 -10790.1717 119.6572 -11491.3898 -10788.8119 120.1614 -1081.3075 -1017.0935 29187.6626 4.3434 4.1808
TCL: Running 100000 steps at 150 kelvin.
TCL: Setting parameter langevinTemp to 150
TCL: Running for 100000 steps
ETITLE: TS BOND ANGLE DIHED IMPRP ELECT VDW BOUNDARY MISC KINETIC TOTAL TEMP POTENTIAL TOTAL3 TEMPAVG PRESSURE GPRESSURE VOLUME PRESSAVG GPRESSAVG
ENERGY: 400000 0.0000 0.0000 0.0000 0.0000 -13703.6814 2212.2915 0.0000 0.0000 700.8686 -10790.5212 119.5975 -11491.3898 -10788.9527 119.5975 -1076.5920 -1016.7750 29187.6626 -1076.5920 -1016.7750
ENERGY: 500000 0.0000 0.0000 0.0000 0.0000 -13550.7844 2201.1524 0.0000 0.0000 863.0186 -10486.6135 147.2671 -11349.6320 -10484.7069 149.9075 -692.8562 -583.3800 29207.0458 4.0866 4.0415
TCL: Running 100000 steps at 180 kelvin.
TCL: Setting parameter langevinTemp to 180
TCL: Running for 100000 steps
ETITLE: TS BOND ANGLE DIHED IMPRP ELECT VDW BOUNDARY MISC KINETIC TOTAL TEMP POTENTIAL TOTAL3 TEMPAVG PRESSURE GPRESSURE VOLUME PRESSAVG GPRESSAVG
ENERGY: 500000 0.0000 0.0000 0.0000 0.0000 -13550.7844 2201.1524 0.0000 0.0000 862.5781 -10487.0540 147.1919 -11349.6320 -10485.6108 147.1919 -642.6191 -583.6824 29207.0458 -642.6191 -583.6824
ENERGY: 600000 0.0000 0.0000 0.0000 0.0000 -13178.7506 2136.8348 0.0000 0.0000 1057.2582 -9984.6576 180.4125 -11041.9158 -9982.3441 179.8348 121.6529 137.9089 29091.5746 4.1396 4.0335
TCL: Running 100000 steps at 210 kelvin.
TCL: Setting parameter langevinTemp to 210
TCL: Running for 100000 steps
ETITLE: TS BOND ANGLE DIHED IMPRP ELECT VDW BOUNDARY MISC KINETIC TOTAL TEMP POTENTIAL TOTAL3 TEMPAVG PRESSURE GPRESSURE VOLUME PRESSAVG GPRESSAVG
ENERGY: 600000 0.0000 0.0000 0.0000 0.0000 -13178.7506 2136.8348 0.0000 0.0000 1056.7530 -9985.1627 180.3263 -11041.9158 -9982.8406 180.3263 73.3562 136.4268 29091.5746 73.3562 136.4268
ENERGY: 700000 0.0000 0.0000 0.0000 0.0000 -12330.5335 1843.8556 0.0000 0.0000 1218.2888 -9268.3891 207.8911 -10486.6780 -9267.0363 210.1068 -189.9250 -86.7914 29150.7890 3.4996 3.4032
TCL: Running 100000 steps at 240 kelvin.
TCL: Setting parameter langevinTemp to 240
TCL: Running for 100000 steps
ETITLE: TS BOND ANGLE DIHED IMPRP ELECT VDW BOUNDARY MISC KINETIC TOTAL TEMP POTENTIAL TOTAL3 TEMPAVG PRESSURE GPRESSURE VOLUME PRESSAVG GPRESSAVG
ENERGY: 700000 0.0000 0.0000 0.0000 0.0000 -12330.5335 1843.8556 0.0000 0.0000 1217.6792 -9268.9988 207.7871 -10486.6780 -9266.6449 207.7871 -157.5299 -88.7893 29150.7890 -157.5299 -88.7893
ENERGY: 800000 0.0000 0.0000 0.0000 0.0000 -11748.3160 1664.4080 0.0000 0.0000 1412.8855 -8671.0226 241.0974 -10083.9081 -8666.9864 239.7038 -309.8721 -252.2506 29280.3787 3.2421 3.3930
TCL: Running 100000 steps at 270 kelvin.
TCL: Setting parameter langevinTemp to 270
TCL: Running for 100000 steps
ETITLE: TS BOND ANGLE DIHED IMPRP ELECT VDW BOUNDARY MISC KINETIC TOTAL TEMP POTENTIAL TOTAL3 TEMPAVG PRESSURE GPRESSURE VOLUME PRESSAVG GPRESSAVG
ENERGY: 800000 0.0000 0.0000 0.0000 0.0000 -11748.3160 1664.4080 0.0000 0.0000 1412.1490 -8671.7591 240.9718 -10083.9081 -8669.6936 240.9718 -324.6512 -252.4430 29280.3787 -324.6512 -252.4430
ENERGY: 900000 0.0000 0.0000 0.0000 0.0000 -11166.7920 1451.0397 0.0000 0.0000 1607.2012 -8108.5511 274.2558 -9715.7523 -8106.0592 270.0458 -927.5026 -861.1242 29890.8761 2.5288 2.4756
TCL: Running 1000000 steps at 300 kelvin.
TCL: Setting parameter langevinTemp to 300
TCL: Running for 1000000 steps
ETITLE: TS BOND ANGLE DIHED IMPRP ELECT VDW BOUNDARY MISC KINETIC TOTAL TEMP POTENTIAL TOTAL3 TEMPAVG PRESSURE GPRESSURE VOLUME PRESSAVG GPRESSAVG
ENERGY: 900000 0.0000 0.0000 0.0000 0.0000 -11166.7920 1451.0397 0.0000 0.0000 1606.3952 -8109.3571 274.1183 -9715.7523 -8107.1454 274.1183 -942.9334 -862.2775 29890.8761 -942.9334 -862.2775
ENERGY: 1100000 0.0000 0.0000 0.0000 0.0000 -10794.3078 1509.7813 0.0000 0.0000 1690.3467 -7594.1798 288.4439 -9284.5265 -7588.5613 299.8097 492.5247 607.6504 30494.0655 3.0328 3.1381
ENERGY: 1300000 0.0000 0.0000 0.0000 0.0000 -10755.2586 1394.9515 0.0000 0.0000 1741.2246 -7619.0826 297.1258 -9360.3071 -7616.6338 300.3505 -502.2564 -443.3922 30611.8333 2.4164 2.4784
ENERGY: 1500000 0.0000 0.0000 0.0000 0.0000 -10596.1743 1314.6321 0.0000 0.0000 1727.4560 -7554.0862 294.7763 -9281.5422 -7550.8248 300.2707 -959.9020 -841.6981 30669.0167 2.9522 2.7712
ENERGY: 1700000 0.0000 0.0000 0.0000 0.0000 -10828.2707 1474.3615 0.0000 0.0000 1810.8051 -7543.1041 308.9992 -9353.9092 -7540.4106 300.6136 104.5998 257.7118 30605.6694 3.8922 3.7828
ENERGY: 1900000 0.0000 0.0000 0.0000 0.0000 -10603.8862 1333.5260 0.0000 0.0000 1828.1563 -7442.2039 311.9600 -9270.3603 -7437.7072 299.9455 -618.0076 -553.6949 30540.5403 2.8232 2.9656
TCL: Exiting due to exit command.
