Info: SIMULATION PARAMETERS:
Info: TIMESTEP               2
Info: NUMBER OF STEPS        0
Info: STEPS PER CYCLE        10
Info: PERIODIC CELL BASIS 1  36.005 0 0
Info: PERIODIC CELL BASIS 2  0 35.779 0
Info: PERIODIC CELL BASIS 3  0 0 34.68
Info: PERIODIC CELL CENTER   0 0 0
Info: WRAPPING WATERS AROUND PERIODIC BOUNDARIES ON OUTPUT.
Info: WRAPPING ALL CLUSTERS AROUND PERIODIC BOUNDARIES ON OUTPUT.
Info: FIRST LDB TIMESTEP     50
Info: LAST LDB TIMESTEP     -1
Info: HOM BACKGROUND SCALING 1
Info: PME BACKGROUND SCALING 1
Info: MIN ATOMS PER PATCH    40
Info: EMPTY PATCH LOAD       40 ATOMS
Info: INITIAL TEMPERATURE    300
Info: CENTER OF MASS MOVING INITIALLY? NO
Info: DIELECTRIC             1
Info: EXCLUDE                SCALED ONE-FOUR
Info: 1-4 ELECTROSTATICS SCALED BY 0.833333
Info: MODIFIED 1-4 VDW PARAMETERS WILL BE USED
Info: DCD FILENAME           mobley_8899867_equil.dcd
Info: DCD FREQUENCY          100000
Info: DCD FIRST STEP         100000
Info: DCD FILE WILL CONTAIN UNIT CELL DATA
Info: XST FILENAME           mobley_8899867_equil.xst
Info: XST FREQUENCY          100000
Info: NO VELOCITY DCD OUTPUT
Info: NO FORCE DCD OUTPUT
Info: OUTPUT FILENAME        mobley_8899867_equil
Info: BINARY OUTPUT FILES WILL BE USED
Info: RESTART FILENAME       mobley_8899867_equil.restart
Info: RESTART FREQUENCY      100000
Info: BINARY RESTART FILES WILL BE USED
Info: CUTOFF                 9
Info: PAIRLIST DISTANCE      11
Info: PAIRLIST SHRINK RATE   0.01
Info: PAIRLIST GROW RATE     0.01
Info: PAIRLIST TRIGGER       0.3
Info: PAIRLISTS PER CYCLE    2
Info: PAIRLISTS ENABLED
Info: MARGIN                 8
Info: HYDROGEN GROUP CUTOFF  2.5
Info: PATCH DIMENSION        21.5
Info: ENERGY OUTPUT STEPS    100000
Info: ENERGY EVALUATION STEPS    100000
Info: OUTPUT ENERGY PRECISION 4
Info: CROSSTERM ENERGY INCLUDED IN DIHEDRAL
Info: TIMING OUTPUT STEPS    1000000
Info: PRESSURE OUTPUT STEPS  100000
Info: FIXED ATOMS ACTIVE
Info: LANGEVIN DYNAMICS ACTIVE
Info: LANGEVIN TEMPERATURE   30
Info: LANGEVIN USING BBK INTEGRATOR
Info: LANGEVIN DAMPING COEFFICIENT IS 1 INVERSE PS
Info: LANGEVIN DYNAMICS APPLIED TO HYDROGENS
Info: LANGEVIN PISTON PRESSURE CONTROL ACTIVE
Info:        TARGET PRESSURE IS 1.01325 BAR
Info:     OSCILLATION PERIOD IS 50 FS
Info:             DECAY TIME IS 25 FS
Info:     PISTON TEMPERATURE IS 300 K
Info:       PRESSURE CONTROL IS GROUP-BASED
Info:    INITIAL STRAIN RATE IS 0 0 0
Info:       CELL FLUCTUATION IS ISOTROPIC
Info: PARTICLE MESH EWALD (PME) ACTIVE
Info: PME TOLERANCE               1e-06
Info: PME EWALD COEFFICIENT       0.348832
Info: PME INTERPOLATION ORDER     4
Info: PME GRID DIMENSIONS         40 36 36
Info: PME MAXIMUM GRID SPACING    1
Info: FULL ELECTROSTATIC EVALUATION FREQUENCY      2
Info: USING VERLET I (r-RESPA) MTS SCHEME.
Info: C1 SPLITTING OF LONG RANGE ELECTROSTATICS
Info: PLACING ATOMS IN PATCHES BY HYDROGEN GROUPS
Info: RIGID BONDS TO HYDROGEN : ALL
Info:         ERROR TOLERANCE : 1e-08
Info:          MAX ITERATIONS : 100
Info: RIGID WATER USING SETTLE ALGORITHM
Info: RANDOM NUMBER SEED     1743739276
Info: USE HYDROGEN BONDS?    NO
Info: Using AMBER format force field!
Info: AMBER PARM FILE        mobley_8899867.prmtop
Info: COORDINATE PDB         mobley_8899867.pdb
Info: Exclusions will be read from PARM file!
Info: SCNB (VDW SCALING)     2
Info: USING ARITHMETIC MEAN TO COMBINE L-J SIGMA PARAMETERS
Info: BINARY COORDINATES     mobley_8899867_min.coor
Info: SUMMARY OF PARAMETERS:
Info: 7 BONDS
Info: 7 ANGLES
Info:   7 HARMONIC
Info:   0 COSINE-BASED
Info: 9 DIHEDRAL
Info: 0 IMPROPER
Info: 0 CROSSTERM
Info: 0 VDW
Info: 21 VDW_PAIRS
Info: 0 NBTHOLE_PAIRS
Info: STRUCTURE SUMMARY:
Info: 2929 ATOMS
Info: 2929 BONDS
Info: 31 ANGLES
Info: 64 DIHEDRALS
Info: 0 IMPROPERS
Info: 0 CROSSTERMS
Info: 3003 EXCLUSIONS
Info: 16 FIXED ATOMS
Info: 2923 RIGID BONDS
Info: 10 RIGID BONDS BETWEEN FIXED ATOMS
Info: 5826 DEGREES OF FREEDOM
Info: 977 HYDROGEN GROUPS
Info: 3 ATOMS IN LARGEST HYDROGEN GROUP
Info: 977 MIGRATION GROUPS
Info: 3 ATOMS IN LARGEST MIGRATION GROUP
Info: 6 HYDROGEN GROUPS WITH ALL ATOMS FIXED
Info: TOTAL MASS = 17579.7 amu
Info: TOTAL CHARGE = 0.000200015 e
Info: MASS DENSITY = 0.653431 g/cm^3
Info: ATOM DENSITY = 0.0655616 atoms/A^3
Info: ADDED 0 IMPLICIT EXCLUSIONS
Info: NONBONDED TABLE R-SQUARED SPACING: 0.0625
Info: NONBONDED TABLE SIZE: 705 POINTS
Info: REMOVING COM VELOCITY -0.0376409 -0.107014 0.127416
TCL: Running for 100000 steps
ETITLE: TS BOND ANGLE DIHED IMPRP ELECT VDW BOUNDARY MISC KINETIC TOTAL TEMP POTENTIAL TOTAL3 TEMPAVG PRESSURE GPRESSURE VOLUME PRESSAVG GPRESSAVG
ENERGY: 0 0.0000 0.0000 0.0000 0.0000 -13581.1556 2383.3135 0.0000 0.0000 1718.1637 -9479.6784 296.8140 -11197.8421 -9479.3475 296.8140 425.0448 454.8680 44675.5700 425.0448 454.8680
ENERGY: 100000 0.0000 0.0000 0.0000 0.0000 -14229.5276 2502.2208 0.0000 0.0000 172.3366 -11554.9702 29.7713 -11727.3068 -11554.4514 30.8559 301.4712 354.7197 28398.8828 4.7837 4.8131
TCL: Running 100000 steps at 60 kelvin.
TCL: Setting parameter langevinTemp to 60
TCL: Running for 100000 steps
ETITLE: TS BOND ANGLE DIHED IMPRP ELECT VDW BOUNDARY MISC KINETIC TOTAL TEMP POTENTIAL TOTAL3 TEMPAVG PRESSURE GPRESSURE VOLUME PRESSAVG GPRESSAVG
ENERGY: 100000 0.0000 0.0000 0.0000 0.0000 -14229.5276 2502.2208 0.0000 0.0000 172.2483 -11555.0586 29.7560 -11727.3068 -11554.7198 29.7560 301.4625 355.0299 28398.8828 301.4625 355.0299
ENERGY: 200000 0.0000 0.0000 0.0000 0.0000 -14093.9347 2416.2370 0.0000 0.0000 346.3421 -11331.3557 59.8308 -11677.6978 -11330.7103 60.0903 -171.8639 -129.5556 28434.4518 4.6942 4.7248
TCL: Running 100000 steps at 90 kelvin.
TCL: Setting parameter langevinTemp to 90
TCL: Running for 100000 steps
ETITLE: TS BOND ANGLE DIHED IMPRP ELECT VDW BOUNDARY MISC KINETIC TOTAL TEMP POTENTIAL TOTAL3 TEMPAVG PRESSURE GPRESSURE VOLUME PRESSAVG GPRESSAVG
ENERGY: 200000 0.0000 0.0000 0.0000 0.0000 -14093.9347 2416.2370 0.0000 0.0000 346.1660 -11331.5317 59.8004 -11677.6978 -11330.8739 59.8004 -176.9762 -129.8363 28434.4518 -176.9762 -129.8363
ENERGY: 300000 0.0000 0.0000 0.0000 0.0000 -14009.5747 2479.3965 0.0000 0.0000 527.5728 -11002.6053 91.1386 -11530.1781 -11001.9814 90.1021 982.3297 1020.8968 28248.1993 5.2596 5.1396
TCL: Running 100000 steps at 120 kelvin.
TCL: Setting parameter langevinTemp to 120
TCL: Running for 100000 steps
ETITLE: TS BOND ANGLE DIHED IMPRP ELECT VDW BOUNDARY MISC KINETIC TOTAL TEMP POTENTIAL TOTAL3 TEMPAVG PRESSURE GPRESSURE VOLUME PRESSAVG GPRESSAVG
ENERGY: 300000 0.0000 0.0000 0.0000 0.0000 -14009.5747 2479.3965 0.0000 0.0000 527.3162 -11002.8620 91.0943 -11530.1781 -11001.9039 91.0943 961.7019 1019.2767 28248.1993 961.7019 1019.2767
ENERGY: 400000 0.0000 0.0000 0.0000 0.0000 -13736.9565 2347.6990 0.0000 0.0000 699.5242 -10689.7333 120.8433 -11389.2575 -10687.5929 119.8869 439.7951 511.1309 28306.2348 3.3068 3.3505
TCL: Running 100000 steps at 150 kelvin.
TCL: Setting parameter langevinTemp to 150
TCL: Running for 100000 steps
ETITLE: TS BOND ANGLE DIHED IMPRP ELECT VDW BOUNDARY MISC KINETIC TOTAL TEMP POTENTIAL TOTAL3 TEMPAVG PRESSURE GPRESSURE VOLUME PRESSAVG GPRESSAVG
ENERGY: 400000 0.0000 0.0000 0.0000 0.0000 -13736.9565 2347.6990 0.0000 0.0000 699.1764 -10690.0811 120.7832 -11389.2575 -10688.7153 120.7832 455.9802 511.4158 28306.2348 455.9802 511.4158
ENERGY: 500000 0.0000 0.0000 0.0000 0.0000 -13324.1978 2078.4495 0.0000 0.0000 882.8868 -10362.8615 152.5193 -11245.7483 -10360.6188 149.9901 -1441.2160 -1405.3392 28915.7504 3.3819 3.2981
TCL: Running 100000 steps at 180 kelvin.
TCL: Setting parameter langevinTemp to 180
TCL: Running for 100000 steps
ETITLE: TS BOND ANGLE DIHED IMPRP ELECT VDW BOUNDARY MISC KINETIC TOTAL TEMP POTENTIAL TOTAL3 TEMPAVG PRESSURE GPRESSURE VOLUME PRESSAVG GPRESSAVG
ENERGY: 500000 0.0000 0.0000 0.0000 0.0000 -13324.1978 2078.4495 0.0000 0.0000 882.4442 -10363.3042 152.4429 -11245.7483 -10361.4447 152.4429 -1451.8857 -1406.2862 28915.7504 -1451.8857 -1406.2862
ENERGY: 600000 0.0000 0.0000 0.0000 0.0000 -12872.0526 1992.8424 0.0000 0.0000 1054.4500 -9824.7602 182.1570 -10879.2102 -9820.9840 180.1403 -837.9317 -780.8587 28984.5813 4.0075 3.9736
TCL: Running 100000 steps at 210 kelvin.
TCL: Setting parameter langevinTemp to 210
TCL: Running for 100000 steps
ETITLE: TS BOND ANGLE DIHED IMPRP ELECT VDW BOUNDARY MISC KINETIC TOTAL TEMP POTENTIAL TOTAL3 TEMPAVG PRESSURE GPRESSURE VOLUME PRESSAVG GPRESSAVG
ENERGY: 600000 0.0000 0.0000 0.0000 0.0000 -12872.0526 1992.8424 0.0000 0.0000 1053.9171 -9825.2931 182.0650 -10879.2102 -9823.0377 182.0650 -859.6489 -779.8717 28984.5813 -859.6489 -779.8717
ENERGY: 700000 0.0000 0.0000 0.0000 0.0000 -12345.8861 1874.6149 0.0000 0.0000 1239.1414 -9232.1298 214.0626 -10471.2712 -9229.6694 210.2407 -202.3269 -153.5315 28834.2118 3.5212 3.5578
TCL: Running 100000 steps at 240 kelvin.
TCL: Setting parameter langevinTemp to 240
TCL: Running for 100000 steps
ETITLE: TS BOND ANGLE DIHED IMPRP ELECT VDW BOUNDARY MISC KINETIC TOTAL TEMP POTENTIAL TOTAL3 TEMPAVG PRESSURE GPRESSURE VOLUME PRESSAVG GPRESSAVG
ENERGY: 700000 0.0000 0.0000 0.0000 0.0000 -12345.8861 1874.6149 0.0000 0.0000 1238.5474 -9232.7238 213.9600 -10471.2712 -9230.1112 213.9600 -226.5472 -153.0727 28834.2118 -226.5472 -153.0727
ENERGY: 800000 0.0000 0.0000 0.0000 0.0000 -11752.7724 1744.2929 0.0000 0.0000 1363.2325 -8645.2471 235.4994 -10008.4796 -8641.3715 240.3502 570.7301 623.5224 28630.9124 1.6421 1.7023
TCL: Running 100000 steps at 270 kelvin.
TCL: Setting parameter langevinTemp to 270
TCL: Running for 100000 steps
ETITLE: TS BOND ANGLE DIHED IMPRP ELECT VDW BOUNDARY MISC KINETIC TOTAL TEMP POTENTIAL TOTAL3 TEMPAVG PRESSURE GPRESSURE VOLUME PRESSAVG GPRESSAVG
ENERGY: 800000 0.0000 0.0000 0.0000 0.0000 -11752.7724 1744.2929 0.0000 0.0000 1362.5639 -8645.9157 235.3839 -10008.4796 -8644.0993 235.3839 529.1863 624.5909 28630.9124 529.1863 624.5909
ENERGY: 900000 0.0000 0.0000 0.0000 0.0000 -11160.1659 1537.2228 0.0000 0.0000 1568.6841 -8054.2590 270.9913 -9622.9431 -8050.7073 270.0606 -88.6935 -45.6552 29277.4509 2.0571 1.7844
TCL: Running 1000000 steps at 300 kelvin.
TCL: Setting parameter langevinTemp to 300
TCL: Running for 1000000 steps
ETITLE: TS BOND ANGLE DIHED IMPRP ELECT VDW BOUNDARY MISC KINETIC TOTAL TEMP POTENTIAL TOTAL3 TEMPAVG PRESSURE GPRESSURE VOLUME PRESSAVG GPRESSAVG
ENERGY: 900000 0.0000 0.0000 0.0000 0.0000 -11160.1659 1537.2228 0.0000 0.0000 1567.9357 -8055.0074 270.8620 -9622.9431 -8052.9166 270.8620 -137.2140 -47.0944 29277.4509 -137.2140 -47.0944
ENERGY: 1100000 0.0000 0.0000 0.0000 0.0000 -10511.0051 1335.6405 0.0000 0.0000 1738.8012 -7436.5634 300.3792 -9175.3646 -7432.0448 300.4151 -848.3026 -857.2442 30868.7509 2.8925 2.8609
ENERGY: 1300000 0.0000 0.0000 0.0000 0.0000 -10782.9873 1529.8356 0.0000 0.0000 1840.2268 -7412.9249 317.9005 -9253.1517 -7408.3033 300.0846 1034.8666 1178.8859 29522.7197 4.4761 4.5078
ENERGY: 1500000 0.0000 0.0000 0.0000 0.0000 -10561.1591 1337.5289 0.0000 0.0000 1711.8964 -7511.7338 295.7314 -9223.6302 -7510.0292 299.4475 -816.2624 -720.4861 30473.0854 3.6241 3.6793
ENERGY: 1700000 0.0000 0.0000 0.0000 0.0000 -10690.6194 1364.2483 0.0000 0.0000 1738.8605 -7587.5106 300.3894 -9326.3712 -7583.4651 299.3527 -458.3321 -403.4887 29562.5036 4.2643 4.0940
ENERGY: 1900000 0.0000 0.0000 0.0000 0.0000 -10629.6728 1481.0074 0.0000 0.0000 1747.2916 -7401.3738 301.8459 -9148.6654 -7396.5757 299.2706 518.7598 627.3596 30427.5630 3.5865 3.3541
TCL: Exiting due to exit command.
