Info: SIMULATION PARAMETERS:
Info: TIMESTEP               2
Info: NUMBER OF STEPS        0
Info: STEPS PER CYCLE        10
Info: PERIODIC CELL BASIS 1  36.592 0 0
Info: PERIODIC CELL BASIS 2  0 34.696 0
Info: PERIODIC CELL BASIS 3  0 0 34.68
Info: PERIODIC CELL CENTER   0 0 0
Info: WRAPPING WATERS AROUND PERIODIC BOUNDARIES ON OUTPUT.
Info: WRAPPING ALL CLUSTERS AROUND PERIODIC BOUNDARIES ON OUTPUT.
Info: FIRST LDB TIMESTEP     50
Info: LAST LDB TIMESTEP     -1
Info: HOM BACKGROUND SCALING 1
Info: PME BACKGROUND SCALING 1
Info: MIN ATOMS PER PATCH    40
Info: EMPTY PATCH LOAD       40 ATOMS
Info: INITIAL TEMPERATURE    300
Info: CENTER OF MASS MOVING INITIALLY? NO
Info: DIELECTRIC             1
Info: EXCLUDE                SCALED ONE-FOUR
Info: 1-4 ELECTROSTATICS SCALED BY 0.833333
Info: MODIFIED 1-4 VDW PARAMETERS WILL BE USED
Info: DCD FILENAME           mobley_2410897_equil.dcd
Info: DCD FREQUENCY          100000
Info: DCD FIRST STEP         100000
Info: DCD FILE WILL CONTAIN UNIT CELL DATA
Info: XST FILENAME           mobley_2410897_equil.xst
Info: XST FREQUENCY          100000
Info: NO VELOCITY DCD OUTPUT
Info: NO FORCE DCD OUTPUT
Info: OUTPUT FILENAME        mobley_2410897_equil
Info: BINARY OUTPUT FILES WILL BE USED
Info: RESTART FILENAME       mobley_2410897_equil.restart
Info: RESTART FREQUENCY      100000
Info: BINARY RESTART FILES WILL BE USED
Info: CUTOFF                 9
Info: PAIRLIST DISTANCE      11
Info: PAIRLIST SHRINK RATE   0.01
Info: PAIRLIST GROW RATE     0.01
Info: PAIRLIST TRIGGER       0.3
Info: PAIRLISTS PER CYCLE    2
Info: PAIRLISTS ENABLED
Info: MARGIN                 8
Info: HYDROGEN GROUP CUTOFF  2.5
Info: PATCH DIMENSION        21.5
Info: ENERGY OUTPUT STEPS    100000
Info: ENERGY EVALUATION STEPS    100000
Info: OUTPUT ENERGY PRECISION 4
Info: CROSSTERM ENERGY INCLUDED IN DIHEDRAL
Info: TIMING OUTPUT STEPS    1000000
Info: PRESSURE OUTPUT STEPS  100000
Info: FIXED ATOMS ACTIVE
Info: LANGEVIN DYNAMICS ACTIVE
Info: LANGEVIN TEMPERATURE   30
Info: LANGEVIN USING BBK INTEGRATOR
Info: LANGEVIN DAMPING COEFFICIENT IS 1 INVERSE PS
Info: LANGEVIN DYNAMICS APPLIED TO HYDROGENS
Info: LANGEVIN PISTON PRESSURE CONTROL ACTIVE
Info:        TARGET PRESSURE IS 1.01325 BAR
Info:     OSCILLATION PERIOD IS 50 FS
Info:             DECAY TIME IS 25 FS
Info:     PISTON TEMPERATURE IS 300 K
Info:       PRESSURE CONTROL IS GROUP-BASED
Info:    INITIAL STRAIN RATE IS 0 0 0
Info:       CELL FLUCTUATION IS ISOTROPIC
Info: PARTICLE MESH EWALD (PME) ACTIVE
Info: PME TOLERANCE               1e-06
Info: PME EWALD COEFFICIENT       0.348832
Info: PME INTERPOLATION ORDER     4
Info: PME GRID DIMENSIONS         40 36 36
Info: PME MAXIMUM GRID SPACING    1
Info: FULL ELECTROSTATIC EVALUATION FREQUENCY      2
Info: USING VERLET I (r-RESPA) MTS SCHEME.
Info: C1 SPLITTING OF LONG RANGE ELECTROSTATICS
Info: PLACING ATOMS IN PATCHES BY HYDROGEN GROUPS
Info: RIGID BONDS TO HYDROGEN : ALL
Info:         ERROR TOLERANCE : 1e-08
Info:          MAX ITERATIONS : 100
Info: RIGID WATER USING SETTLE ALGORITHM
Info: RANDOM NUMBER SEED     1743674766
Info: USE HYDROGEN BONDS?    NO
Info: Using AMBER format force field!
Info: AMBER PARM FILE        mobley_2410897.prmtop
Info: COORDINATE PDB         mobley_2410897.pdb
Info: Exclusions will be read from PARM file!
Info: SCNB (VDW SCALING)     2
Info: USING ARITHMETIC MEAN TO COMBINE L-J SIGMA PARAMETERS
Info: BINARY COORDINATES     mobley_2410897_min.coor
Info: SUMMARY OF PARAMETERS:
Info: 7 BONDS
Info: 8 ANGLES
Info:   8 HARMONIC
Info:   0 COSINE-BASED
Info: 2 DIHEDRAL
Info: 0 IMPROPER
Info: 0 CROSSTERM
Info: 0 VDW
Info: 28 VDW_PAIRS
Info: 0 NBTHOLE_PAIRS
Info: STRUCTURE SUMMARY:
Info: 2953 ATOMS
Info: 2952 BONDS
Info: 15 ANGLES
Info: 15 DIHEDRALS
Info: 0 IMPROPERS
Info: 0 CROSSTERMS
Info: 2982 EXCLUSIONS
Info: 10 FIXED ATOMS
Info: 2950 RIGID BONDS
Info: 7 RIGID BONDS BETWEEN FIXED ATOMS
Info: 5886 DEGREES OF FREEDOM
Info: 984 HYDROGEN GROUPS
Info: 4 ATOMS IN LARGEST HYDROGEN GROUP
Info: 984 MIGRATION GROUPS
Info: 4 ATOMS IN LARGEST MIGRATION GROUP
Info: 3 HYDROGEN GROUPS WITH ALL ATOMS FIXED
Info: TOTAL MASS = 17718.8 amu
Info: TOTAL CHARGE = -0.000100013 e
Info: MASS DENSITY = 0.668265 g/cm^3
Info: ATOM DENSITY = 0.0670685 atoms/A^3
Info: ADDED 0 IMPLICIT EXCLUSIONS
Info: NONBONDED TABLE R-SQUARED SPACING: 0.0625
Info: NONBONDED TABLE SIZE: 705 POINTS
Info: REMOVING COM VELOCITY 0.081838 -0.0859777 -0.212651
TCL: Running for 100000 steps
ETITLE: TS BOND ANGLE DIHED IMPRP ELECT VDW BOUNDARY MISC KINETIC TOTAL TEMP POTENTIAL TOTAL3 TEMPAVG PRESSURE GPRESSURE VOLUME PRESSAVG GPRESSAVG
ENERGY: 0 0.0000 0.0000 0.0000 0.0000 -13730.8995 2386.9211 0.0000 0.0000 1753.5611 -9590.4173 299.8410 -11343.9784 -9590.0770 299.8410 334.6311 379.6023 44029.5904 334.6311 379.6023
ENERGY: 100000 0.0000 0.0000 0.0000 0.0000 -14445.8758 2597.6561 0.0000 0.0000 175.2248 -11672.9949 29.9617 -11848.2197 -11672.7077 30.8442 937.5754 1006.3284 28756.7675 3.6547 3.6607
TCL: Running 100000 steps at 60 kelvin.
TCL: Setting parameter langevinTemp to 60
TCL: Running for 100000 steps
ETITLE: TS BOND ANGLE DIHED IMPRP ELECT VDW BOUNDARY MISC KINETIC TOTAL TEMP POTENTIAL TOTAL3 TEMPAVG PRESSURE GPRESSURE VOLUME PRESSAVG GPRESSAVG
ENERGY: 100000 0.0000 0.0000 0.0000 0.0000 -14445.8758 2597.6561 0.0000 0.0000 175.1368 -11673.0830 29.9466 -11848.2197 -11672.7864 29.9466 934.1245 1006.1095 28756.7675 934.1245 1006.1095
ENERGY: 200000 0.0000 0.0000 0.0000 0.0000 -14332.7302 2559.1576 0.0000 0.0000 335.4312 -11438.1414 57.3553 -11773.5726 -11437.7137 59.9529 914.5856 938.7929 28913.4633 4.1361 4.1800
TCL: Running 100000 steps at 90 kelvin.
TCL: Setting parameter langevinTemp to 90
TCL: Running for 100000 steps
ETITLE: TS BOND ANGLE DIHED IMPRP ELECT VDW BOUNDARY MISC KINETIC TOTAL TEMP POTENTIAL TOTAL3 TEMPAVG PRESSURE GPRESSURE VOLUME PRESSAVG GPRESSAVG
ENERGY: 200000 0.0000 0.0000 0.0000 0.0000 -14332.7302 2559.1576 0.0000 0.0000 335.2472 -11438.3254 57.3238 -11773.5726 -11437.6074 57.3238 884.0084 938.4911 28913.4633 884.0084 938.4911
ENERGY: 300000 0.0000 0.0000 0.0000 0.0000 -14118.3377 2433.0222 0.0000 0.0000 521.9980 -11163.3175 89.2563 -11685.3155 -11161.9729 90.1998 271.5013 299.5133 28846.4659 5.1420 5.1770
TCL: Running 100000 steps at 120 kelvin.
TCL: Setting parameter langevinTemp to 120
TCL: Running for 100000 steps
ETITLE: TS BOND ANGLE DIHED IMPRP ELECT VDW BOUNDARY MISC KINETIC TOTAL TEMP POTENTIAL TOTAL3 TEMPAVG PRESSURE GPRESSURE VOLUME PRESSAVG GPRESSAVG
ENERGY: 300000 0.0000 0.0000 0.0000 0.0000 -14118.3377 2433.0222 0.0000 0.0000 521.7228 -11163.5927 89.2093 -11685.3155 -11162.8113 89.2093 248.2049 299.7105 28846.4659 248.2049 299.7105
ENERGY: 400000 0.0000 0.0000 0.0000 0.0000 -13954.0907 2416.0954 0.0000 0.0000 690.2117 -10847.7835 118.0191 -11537.9952 -10846.6550 120.1318 673.8160 737.3617 28752.1384 4.9416 4.8823
TCL: Running 100000 steps at 150 kelvin.
TCL: Setting parameter langevinTemp to 150
TCL: Running for 100000 steps
ETITLE: TS BOND ANGLE DIHED IMPRP ELECT VDW BOUNDARY MISC KINETIC TOTAL TEMP POTENTIAL TOTAL3 TEMPAVG PRESSURE GPRESSURE VOLUME PRESSAVG GPRESSAVG
ENERGY: 400000 0.0000 0.0000 0.0000 0.0000 -13954.0907 2416.0954 0.0000 0.0000 689.8770 -10848.1182 117.9619 -11537.9952 -10846.9606 117.9619 681.8013 736.4558 28752.1384 681.8013 736.4558
ENERGY: 500000 0.0000 0.0000 0.0000 0.0000 -13461.5447 2090.0914 0.0000 0.0000 879.3137 -10492.1396 150.3536 -11371.4533 -10489.2012 150.0965 -1546.3066 -1530.1717 29434.5022 5.0835 5.0053
TCL: Running 100000 steps at 180 kelvin.
TCL: Setting parameter langevinTemp to 180
TCL: Running for 100000 steps
ETITLE: TS BOND ANGLE DIHED IMPRP ELECT VDW BOUNDARY MISC KINETIC TOTAL TEMP POTENTIAL TOTAL3 TEMPAVG PRESSURE GPRESSURE VOLUME PRESSAVG GPRESSAVG
ENERGY: 500000 0.0000 0.0000 0.0000 0.0000 -13461.5447 2090.0914 0.0000 0.0000 878.8706 -10492.5827 150.2779 -11371.4533 -10490.9456 150.2779 -1587.1086 -1529.3883 29434.5022 -1587.1086 -1529.3883
ENERGY: 600000 0.0000 0.0000 0.0000 0.0000 -13164.7760 2079.5413 0.0000 0.0000 1067.0579 -10018.1769 182.4560 -11085.2348 -10016.3633 179.9140 -522.1228 -491.7155 29176.3086 5.5574 5.4092
TCL: Running 100000 steps at 210 kelvin.
TCL: Setting parameter langevinTemp to 210
TCL: Running for 100000 steps
ETITLE: TS BOND ANGLE DIHED IMPRP ELECT VDW BOUNDARY MISC KINETIC TOTAL TEMP POTENTIAL TOTAL3 TEMPAVG PRESSURE GPRESSURE VOLUME PRESSAVG GPRESSAVG
ENERGY: 600000 0.0000 0.0000 0.0000 0.0000 -13164.7760 2079.5413 0.0000 0.0000 1066.5268 -10018.7080 182.3652 -11085.2348 -10016.5102 182.3652 -543.9219 -492.5478 29176.3086 -543.9219 -492.5478
ENERGY: 700000 0.0000 0.0000 0.0000 0.0000 -12462.4181 1827.8695 0.0000 0.0000 1234.3753 -9400.1734 211.0655 -10634.5486 -9395.9206 209.9110 -663.6399 -611.0063 28788.6271 3.2890 3.0320
TCL: Running 100000 steps at 240 kelvin.
TCL: Setting parameter langevinTemp to 240
TCL: Running for 100000 steps
ETITLE: TS BOND ANGLE DIHED IMPRP ELECT VDW BOUNDARY MISC KINETIC TOTAL TEMP POTENTIAL TOTAL3 TEMPAVG PRESSURE GPRESSURE VOLUME PRESSAVG GPRESSAVG
ENERGY: 700000 0.0000 0.0000 0.0000 0.0000 -12462.4181 1827.8695 0.0000 0.0000 1233.7604 -9400.7882 210.9604 -10634.5486 -9398.4185 210.9604 -698.0593 -610.5358 28788.6271 -698.0593 -610.5358
ENERGY: 800000 0.0000 0.0000 0.0000 0.0000 -12073.7710 1901.0904 0.0000 0.0000 1440.1038 -8732.5769 246.2430 -10172.6807 -8729.7613 239.6855 1221.8816 1377.8327 29213.4988 4.3437 4.0940
TCL: Running 100000 steps at 270 kelvin.
TCL: Setting parameter langevinTemp to 270
TCL: Running for 100000 steps
ETITLE: TS BOND ANGLE DIHED IMPRP ELECT VDW BOUNDARY MISC KINETIC TOTAL TEMP POTENTIAL TOTAL3 TEMPAVG PRESSURE GPRESSURE VOLUME PRESSAVG GPRESSAVG
ENERGY: 800000 0.0000 0.0000 0.0000 0.0000 -12073.7710 1901.0904 0.0000 0.0000 1439.4021 -8733.2786 246.1230 -10172.6807 -8731.5326 246.1230 1291.0418 1377.6581 29213.4988 1291.0418 1377.6581
ENERGY: 900000 0.0000 0.0000 0.0000 0.0000 -11311.2485 1515.1900 0.0000 0.0000 1561.0197 -8235.0388 266.9184 -9796.0585 -8230.9944 269.6009 -503.8252 -441.1670 29496.8814 4.2630 4.1842
TCL: Running 1000000 steps at 300 kelvin.
TCL: Setting parameter langevinTemp to 300
TCL: Running for 1000000 steps
ETITLE: TS BOND ANGLE DIHED IMPRP ELECT VDW BOUNDARY MISC KINETIC TOTAL TEMP POTENTIAL TOTAL3 TEMPAVG PRESSURE GPRESSURE VOLUME PRESSAVG GPRESSAVG
ENERGY: 900000 0.0000 0.0000 0.0000 0.0000 -11311.2485 1515.1900 0.0000 0.0000 1560.2571 -8235.8015 266.7880 -9796.0585 -8232.7040 266.7880 -518.8919 -439.3351 29496.8814 -518.8919 -439.3351
ENERGY: 1100000 0.0000 0.0000 0.0000 0.0000 -10734.9172 1401.7423 0.0000 0.0000 1742.7917 -7590.3832 297.9995 -9333.1749 -7589.3491 299.8726 -474.0634 -343.8826 30589.1877 4.2444 4.4566
ENERGY: 1300000 0.0000 0.0000 0.0000 0.0000 -10675.7272 1368.3303 0.0000 0.0000 1752.0896 -7555.3073 299.5894 -9307.3969 -7553.0527 299.8010 -620.7195 -542.9998 30599.6351 2.6905 2.7648
ENERGY: 1500000 0.0000 0.0000 0.0000 0.0000 -10680.1365 1382.0784 0.0000 0.0000 1762.7263 -7535.3317 301.4082 -9298.0580 -7532.7188 300.0511 -307.5529 -227.0840 30435.5956 3.0090 2.6346
ENERGY: 1700000 0.0000 0.0000 0.0000 0.0000 -10693.6778 1379.0492 0.0000 0.0000 1795.5715 -7519.0572 307.0243 -9314.6286 -7516.8592 300.3945 -445.8128 -356.0296 30594.6085 3.5822 3.7438
ENERGY: 1900000 0.0000 0.0000 0.0000 0.0000 -10785.2417 1399.0393 0.0000 0.0000 1784.3208 -7601.8816 305.1006 -9386.2024 -7597.9433 300.1118 -236.0488 -196.9636 30213.4268 2.9583 3.1111
TCL: Exiting due to exit command.
