Info: SIMULATION PARAMETERS:
Info: TIMESTEP               2
Info: NUMBER OF STEPS        0
Info: STEPS PER CYCLE        10
Info: PERIODIC CELL BASIS 1  36.592 0 0
Info: PERIODIC CELL BASIS 2  0 36.611 0
Info: PERIODIC CELL BASIS 3  0 0 33.27
Info: PERIODIC CELL CENTER   0 0 0
Info: WRAPPING WATERS AROUND PERIODIC BOUNDARIES ON OUTPUT.
Info: WRAPPING ALL CLUSTERS AROUND PERIODIC BOUNDARIES ON OUTPUT.
Info: FIRST LDB TIMESTEP     50
Info: LAST LDB TIMESTEP     -1
Info: HOM BACKGROUND SCALING 1
Info: PME BACKGROUND SCALING 1
Info: MIN ATOMS PER PATCH    40
Info: EMPTY PATCH LOAD       40 ATOMS
Info: INITIAL TEMPERATURE    300
Info: CENTER OF MASS MOVING INITIALLY? NO
Info: DIELECTRIC             1
Info: EXCLUDE                SCALED ONE-FOUR
Info: 1-4 ELECTROSTATICS SCALED BY 0.833333
Info: MODIFIED 1-4 VDW PARAMETERS WILL BE USED
Info: DCD FILENAME           mobley_8746821_equil.dcd
Info: DCD FREQUENCY          100000
Info: DCD FIRST STEP         100000
Info: DCD FILE WILL CONTAIN UNIT CELL DATA
Info: XST FILENAME           mobley_8746821_equil.xst
Info: XST FREQUENCY          100000
Info: NO VELOCITY DCD OUTPUT
Info: NO FORCE DCD OUTPUT
Info: OUTPUT FILENAME        mobley_8746821_equil
Info: BINARY OUTPUT FILES WILL BE USED
Info: RESTART FILENAME       mobley_8746821_equil.restart
Info: RESTART FREQUENCY      100000
Info: BINARY RESTART FILES WILL BE USED
Info: CUTOFF                 9
Info: PAIRLIST DISTANCE      11
Info: PAIRLIST SHRINK RATE   0.01
Info: PAIRLIST GROW RATE     0.01
Info: PAIRLIST TRIGGER       0.3
Info: PAIRLISTS PER CYCLE    2
Info: PAIRLISTS ENABLED
Info: MARGIN                 8
Info: HYDROGEN GROUP CUTOFF  2.5
Info: PATCH DIMENSION        21.5
Info: ENERGY OUTPUT STEPS    100000
Info: ENERGY EVALUATION STEPS    100000
Info: OUTPUT ENERGY PRECISION 4
Info: CROSSTERM ENERGY INCLUDED IN DIHEDRAL
Info: TIMING OUTPUT STEPS    1000000
Info: PRESSURE OUTPUT STEPS  100000
Info: FIXED ATOMS ACTIVE
Info: LANGEVIN DYNAMICS ACTIVE
Info: LANGEVIN TEMPERATURE   30
Info: LANGEVIN USING BBK INTEGRATOR
Info: LANGEVIN DAMPING COEFFICIENT IS 1 INVERSE PS
Info: LANGEVIN DYNAMICS APPLIED TO HYDROGENS
Info: LANGEVIN PISTON PRESSURE CONTROL ACTIVE
Info:        TARGET PRESSURE IS 1.01325 BAR
Info:     OSCILLATION PERIOD IS 50 FS
Info:             DECAY TIME IS 25 FS
Info:     PISTON TEMPERATURE IS 300 K
Info:       PRESSURE CONTROL IS GROUP-BASED
Info:    INITIAL STRAIN RATE IS 0 0 0
Info:       CELL FLUCTUATION IS ISOTROPIC
Info: PARTICLE MESH EWALD (PME) ACTIVE
Info: PME TOLERANCE               1e-06
Info: PME EWALD COEFFICIENT       0.348832
Info: PME INTERPOLATION ORDER     4
Info: PME GRID DIMENSIONS         40 40 36
Info: PME MAXIMUM GRID SPACING    1
Info: FULL ELECTROSTATIC EVALUATION FREQUENCY      2
Info: USING VERLET I (r-RESPA) MTS SCHEME.
Info: C1 SPLITTING OF LONG RANGE ELECTROSTATICS
Info: PLACING ATOMS IN PATCHES BY HYDROGEN GROUPS
Info: RIGID BONDS TO HYDROGEN : ALL
Info:         ERROR TOLERANCE : 1e-08
Info:          MAX ITERATIONS : 100
Info: RIGID WATER USING SETTLE ALGORITHM
Info: RANDOM NUMBER SEED     1743739724
Info: USE HYDROGEN BONDS?    NO
Info: Using AMBER format force field!
Info: AMBER PARM FILE        mobley_8746821.prmtop
Info: COORDINATE PDB         mobley_8746821.pdb
Info: Exclusions will be read from PARM file!
Info: SCNB (VDW SCALING)     2
Info: USING ARITHMETIC MEAN TO COMBINE L-J SIGMA PARAMETERS
Info: BINARY COORDINATES     mobley_8746821_min.coor
Info: SUMMARY OF PARAMETERS:
Info: 8 BONDS
Info: 10 ANGLES
Info:   10 HARMONIC
Info:   0 COSINE-BASED
Info: 4 DIHEDRAL
Info: 0 IMPROPER
Info: 0 CROSSTERM
Info: 0 VDW
Info: 36 VDW_PAIRS
Info: 0 NBTHOLE_PAIRS
Info: STRUCTURE SUMMARY:
Info: 2951 ATOMS
Info: 2951 BONDS
Info: 28 ANGLES
Info: 37 DIHEDRALS
Info: 0 IMPROPERS
Info: 0 CROSSTERMS
Info: 3008 EXCLUSIONS
Info: 17 FIXED ATOMS
Info: 2943 RIGID BONDS
Info: 9 RIGID BONDS BETWEEN FIXED ATOMS
Info: 5868 DEGREES OF FREEDOM
Info: 986 HYDROGEN GROUPS
Info: 4 ATOMS IN LARGEST HYDROGEN GROUP
Info: 986 MIGRATION GROUPS
Info: 4 ATOMS IN LARGEST MIGRATION GROUP
Info: 8 HYDROGEN GROUPS WITH ALL ATOMS FIXED
Info: TOTAL MASS = 17726.8 amu
Info: TOTAL CHARGE = 0.000100052 e
Info: MASS DENSITY = 0.660449 g/cm^3
Info: ATOM DENSITY = 0.0662093 atoms/A^3
Info: ADDED 0 IMPLICIT EXCLUSIONS
Info: NONBONDED TABLE R-SQUARED SPACING: 0.0625
Info: NONBONDED TABLE SIZE: 705 POINTS
Info: REMOVING COM VELOCITY -0.0807976 0.0984804 0.0669651
TCL: Running for 100000 steps
ETITLE: TS BOND ANGLE DIHED IMPRP ELECT VDW BOUNDARY MISC KINETIC TOTAL TEMP POTENTIAL TOTAL3 TEMPAVG PRESSURE GPRESSURE VOLUME PRESSAVG GPRESSAVG
ENERGY: 0 0.0000 0.0000 0.0000 0.0000 -13650.9666 2386.7111 0.0000 0.0000 1722.2648 -9541.9907 295.3930 -11264.2555 -9541.6545 295.3930 388.2815 417.2663 44570.8113 388.2815 417.2663
ENERGY: 100000 0.0000 0.0000 0.0000 0.0000 -14372.1153 2558.4502 0.0000 0.0000 179.1538 -11634.5113 30.7274 -11813.6651 -11634.0582 30.9092 787.4036 801.8837 28562.9917 3.9234 3.9620
TCL: Running 100000 steps at 60 kelvin.
TCL: Setting parameter langevinTemp to 60
TCL: Running for 100000 steps
ETITLE: TS BOND ANGLE DIHED IMPRP ELECT VDW BOUNDARY MISC KINETIC TOTAL TEMP POTENTIAL TOTAL3 TEMPAVG PRESSURE GPRESSURE VOLUME PRESSAVG GPRESSAVG
ENERGY: 100000 0.0000 0.0000 0.0000 0.0000 -14372.1153 2558.4502 0.0000 0.0000 179.0672 -11634.5979 30.7126 -11813.6651 -11634.1714 30.7126 763.3026 801.7670 28562.9917 763.3026 801.7670
ENERGY: 200000 0.0000 0.0000 0.0000 0.0000 -14170.1620 2422.6503 0.0000 0.0000 350.6883 -11396.8234 60.1480 -11747.5117 -11396.3510 59.9772 -25.2374 17.0236 28497.9983 3.6701 3.7158
TCL: Running 100000 steps at 90 kelvin.
TCL: Setting parameter langevinTemp to 90
TCL: Running for 100000 steps
ETITLE: TS BOND ANGLE DIHED IMPRP ELECT VDW BOUNDARY MISC KINETIC TOTAL TEMP POTENTIAL TOTAL3 TEMPAVG PRESSURE GPRESSURE VOLUME PRESSAVG GPRESSAVG
ENERGY: 200000 0.0000 0.0000 0.0000 0.0000 -14170.1620 2422.6503 0.0000 0.0000 350.5096 -11397.0021 60.1174 -11747.5117 -11396.3649 60.1174 -43.5139 16.5468 28497.9983 -43.5139 16.5468
ENERGY: 300000 0.0000 0.0000 0.0000 0.0000 -13946.0062 2333.5986 0.0000 0.0000 528.3678 -11084.0397 90.6226 -11612.4076 -11083.2878 90.0703 -449.8260 -397.2701 28857.6050 3.7514 3.7643
TCL: Running 100000 steps at 120 kelvin.
TCL: Setting parameter langevinTemp to 120
TCL: Running for 100000 steps
ETITLE: TS BOND ANGLE DIHED IMPRP ELECT VDW BOUNDARY MISC KINETIC TOTAL TEMP POTENTIAL TOTAL3 TEMPAVG PRESSURE GPRESSURE VOLUME PRESSAVG GPRESSAVG
ENERGY: 300000 0.0000 0.0000 0.0000 0.0000 -13946.0062 2333.5986 0.0000 0.0000 528.1078 -11084.2998 90.5780 -11612.4076 -11083.0994 90.5780 -445.9774 -398.0765 28857.6050 -445.9774 -398.0765
ENERGY: 400000 0.0000 0.0000 0.0000 0.0000 -13902.8468 2412.7960 0.0000 0.0000 685.9985 -10804.0524 117.6585 -11490.0509 -10802.7305 119.8181 774.9621 822.2348 28590.9086 3.5664 3.5523
TCL: Running 100000 steps at 150 kelvin.
TCL: Setting parameter langevinTemp to 150
TCL: Running for 100000 steps
ETITLE: TS BOND ANGLE DIHED IMPRP ELECT VDW BOUNDARY MISC KINETIC TOTAL TEMP POTENTIAL TOTAL3 TEMPAVG PRESSURE GPRESSURE VOLUME PRESSAVG GPRESSAVG
ENERGY: 400000 0.0000 0.0000 0.0000 0.0000 -13902.8468 2412.7960 0.0000 0.0000 685.6567 -10804.3942 117.5999 -11490.0509 -10803.1936 117.5999 769.9836 822.5342 28590.9086 769.9836 822.5342
ENERGY: 500000 0.0000 0.0000 0.0000 0.0000 -13540.6993 2212.5723 0.0000 0.0000 882.6248 -10445.5023 151.3828 -11328.1270 -10443.4917 150.1637 -344.7358 -293.9886 28895.3789 3.2910 3.3523
TCL: Running 100000 steps at 180 kelvin.
TCL: Setting parameter langevinTemp to 180
TCL: Running for 100000 steps
ETITLE: TS BOND ANGLE DIHED IMPRP ELECT VDW BOUNDARY MISC KINETIC TOTAL TEMP POTENTIAL TOTAL3 TEMPAVG PRESSURE GPRESSURE VOLUME PRESSAVG GPRESSAVG
ENERGY: 500000 0.0000 0.0000 0.0000 0.0000 -13540.6993 2212.5723 0.0000 0.0000 882.1836 -10445.9434 151.3071 -11328.1270 -10444.2448 151.3071 -356.9889 -293.9605 28895.3789 -356.9889 -293.9605
ENERGY: 600000 0.0000 0.0000 0.0000 0.0000 -13191.3167 2138.8787 0.0000 0.0000 1037.7021 -10014.7358 177.9807 -11052.4380 -10012.6192 179.9830 331.1665 388.9864 28567.9848 3.4908 3.3904
TCL: Running 100000 steps at 210 kelvin.
TCL: Setting parameter langevinTemp to 210
TCL: Running for 100000 steps
ETITLE: TS BOND ANGLE DIHED IMPRP ELECT VDW BOUNDARY MISC KINETIC TOTAL TEMP POTENTIAL TOTAL3 TEMPAVG PRESSURE GPRESSURE VOLUME PRESSAVG GPRESSAVG
ENERGY: 600000 0.0000 0.0000 0.0000 0.0000 -13191.3167 2138.8787 0.0000 0.0000 1037.1602 -10015.2777 177.8878 -11052.4380 -10013.6731 177.8878 307.0329 388.9580 28567.9848 307.0329 388.9580
ENERGY: 700000 0.0000 0.0000 0.0000 0.0000 -12497.0087 1916.0784 0.0000 0.0000 1227.0459 -9353.8844 210.4559 -10580.9303 -9348.9005 210.0657 58.6270 127.7438 28962.5070 4.1691 4.1743
TCL: Running 100000 steps at 240 kelvin.
TCL: Setting parameter langevinTemp to 240
TCL: Running for 100000 steps
ETITLE: TS BOND ANGLE DIHED IMPRP ELECT VDW BOUNDARY MISC KINETIC TOTAL TEMP POTENTIAL TOTAL3 TEMPAVG PRESSURE GPRESSURE VOLUME PRESSAVG GPRESSAVG
ENERGY: 700000 0.0000 0.0000 0.0000 0.0000 -12497.0087 1916.0784 0.0000 0.0000 1226.4378 -9354.4925 210.3516 -10580.9303 -9352.8714 210.3516 64.4189 128.8479 28962.5070 64.4189 128.8479
ENERGY: 800000 0.0000 0.0000 0.0000 0.0000 -11813.1302 1712.3314 0.0000 0.0000 1373.1826 -8727.6161 235.5204 -10100.7988 -8725.1899 240.0137 108.9381 156.7818 29095.1359 3.8903 3.7030
TCL: Running 100000 steps at 270 kelvin.
TCL: Setting parameter langevinTemp to 270
TCL: Running for 100000 steps
ETITLE: TS BOND ANGLE DIHED IMPRP ELECT VDW BOUNDARY MISC KINETIC TOTAL TEMP POTENTIAL TOTAL3 TEMPAVG PRESSURE GPRESSURE VOLUME PRESSAVG GPRESSAVG
ENERGY: 800000 0.0000 0.0000 0.0000 0.0000 -11813.1302 1712.3314 0.0000 0.0000 1372.4737 -8728.3250 235.3988 -10100.7988 -8726.3234 235.3988 76.1299 157.2548 29095.1359 76.1299 157.2548
ENERGY: 900000 0.0000 0.0000 0.0000 0.0000 -11192.7118 1472.1338 0.0000 0.0000 1540.4273 -8180.1507 264.2053 -9720.5780 -8174.5741 270.3207 -843.4090 -808.5466 29820.6636 3.4673 3.5505
TCL: Running 1000000 steps at 300 kelvin.
TCL: Setting parameter langevinTemp to 300
TCL: Running for 1000000 steps
ETITLE: TS BOND ANGLE DIHED IMPRP ELECT VDW BOUNDARY MISC KINETIC TOTAL TEMP POTENTIAL TOTAL3 TEMPAVG PRESSURE GPRESSURE VOLUME PRESSAVG GPRESSAVG
ENERGY: 900000 0.0000 0.0000 0.0000 0.0000 -11192.7118 1472.1338 0.0000 0.0000 1539.6445 -8180.9335 264.0710 -9720.5780 -8178.1247 264.0710 -879.7751 -809.2582 29820.6636 -879.7751 -809.2582
ENERGY: 1100000 0.0000 0.0000 0.0000 0.0000 -10761.5752 1420.7962 0.0000 0.0000 1765.0687 -7575.7102 302.7345 -9340.7790 -7572.4764 300.0703 -222.7149 -182.6932 30606.8496 2.9316 2.9812
ENERGY: 1300000 0.0000 0.0000 0.0000 0.0000 -10851.3760 1526.3753 0.0000 0.0000 1710.4016 -7614.5991 293.3583 -9325.0007 -7611.3228 299.9614 850.5409 869.4934 30086.8088 4.0361 4.1002
ENERGY: 1500000 0.0000 0.0000 0.0000 0.0000 -10802.3739 1480.9253 0.0000 0.0000 1770.0750 -7551.3736 303.5931 -9321.4486 -7548.4341 300.6626 455.2150 551.2823 29916.4296 3.5991 3.6614
ENERGY: 1700000 0.0000 0.0000 0.0000 0.0000 -10778.2063 1489.6971 0.0000 0.0000 1752.1700 -7536.3392 300.5222 -9288.5092 -7533.5807 300.5235 626.3542 694.4801 30315.0865 3.7419 3.6204
ENERGY: 1900000 0.0000 0.0000 0.0000 0.0000 -10763.9371 1438.4305 0.0000 0.0000 1703.6281 -7621.8785 292.1965 -9325.5065 -7618.7891 300.2749 54.2025 127.3955 30151.1704 1.9542 2.0127
TCL: Exiting due to exit command.
