Info: SIMULATION PARAMETERS:
Info: TIMESTEP               2
Info: NUMBER OF STEPS        0
Info: STEPS PER CYCLE        10
Info: PERIODIC CELL BASIS 1  41.123 0 0
Info: PERIODIC CELL BASIS 2  0 35.411 0
Info: PERIODIC CELL BASIS 3  0 0 30.728
Info: PERIODIC CELL CENTER   0 0 0
Info: WRAPPING WATERS AROUND PERIODIC BOUNDARIES ON OUTPUT.
Info: WRAPPING ALL CLUSTERS AROUND PERIODIC BOUNDARIES ON OUTPUT.
Info: FIRST LDB TIMESTEP     50
Info: LAST LDB TIMESTEP     -1
Info: HOM BACKGROUND SCALING 1
Info: PME BACKGROUND SCALING 1
Info: MIN ATOMS PER PATCH    40
Info: EMPTY PATCH LOAD       40 ATOMS
Info: INITIAL TEMPERATURE    300
Info: CENTER OF MASS MOVING INITIALLY? NO
Info: DIELECTRIC             1
Info: EXCLUDE                SCALED ONE-FOUR
Info: 1-4 ELECTROSTATICS SCALED BY 0.833333
Info: MODIFIED 1-4 VDW PARAMETERS WILL BE USED
Info: DCD FILENAME           mobley_4149784_equil.dcd
Info: DCD FREQUENCY          100000
Info: DCD FIRST STEP         100000
Info: DCD FILE WILL CONTAIN UNIT CELL DATA
Info: XST FILENAME           mobley_4149784_equil.xst
Info: XST FREQUENCY          100000
Info: NO VELOCITY DCD OUTPUT
Info: NO FORCE DCD OUTPUT
Info: OUTPUT FILENAME        mobley_4149784_equil
Info: BINARY OUTPUT FILES WILL BE USED
Info: RESTART FILENAME       mobley_4149784_equil.restart
Info: RESTART FREQUENCY      100000
Info: BINARY RESTART FILES WILL BE USED
Info: CUTOFF                 9
Info: PAIRLIST DISTANCE      11
Info: PAIRLIST SHRINK RATE   0.01
Info: PAIRLIST GROW RATE     0.01
Info: PAIRLIST TRIGGER       0.3
Info: PAIRLISTS PER CYCLE    2
Info: PAIRLISTS ENABLED
Info: MARGIN                 8
Info: HYDROGEN GROUP CUTOFF  2.5
Info: PATCH DIMENSION        21.5
Info: ENERGY OUTPUT STEPS    100000
Info: ENERGY EVALUATION STEPS    100000
Info: OUTPUT ENERGY PRECISION 4
Info: CROSSTERM ENERGY INCLUDED IN DIHEDRAL
Info: TIMING OUTPUT STEPS    1000000
Info: PRESSURE OUTPUT STEPS  100000
Info: FIXED ATOMS ACTIVE
Info: LANGEVIN DYNAMICS ACTIVE
Info: LANGEVIN TEMPERATURE   30
Info: LANGEVIN USING BBK INTEGRATOR
Info: LANGEVIN DAMPING COEFFICIENT IS 1 INVERSE PS
Info: LANGEVIN DYNAMICS APPLIED TO HYDROGENS
Info: LANGEVIN PISTON PRESSURE CONTROL ACTIVE
Info:        TARGET PRESSURE IS 1.01325 BAR
Info:     OSCILLATION PERIOD IS 50 FS
Info:             DECAY TIME IS 25 FS
Info:     PISTON TEMPERATURE IS 300 K
Info:       PRESSURE CONTROL IS GROUP-BASED
Info:    INITIAL STRAIN RATE IS 0 0 0
Info:       CELL FLUCTUATION IS ISOTROPIC
Info: PARTICLE MESH EWALD (PME) ACTIVE
Info: PME TOLERANCE               1e-06
Info: PME EWALD COEFFICIENT       0.348832
Info: PME INTERPOLATION ORDER     4
Info: PME GRID DIMENSIONS         44 36 32
Info: PME MAXIMUM GRID SPACING    1
Info: FULL ELECTROSTATIC EVALUATION FREQUENCY      2
Info: USING VERLET I (r-RESPA) MTS SCHEME.
Info: C1 SPLITTING OF LONG RANGE ELECTROSTATICS
Info: PLACING ATOMS IN PATCHES BY HYDROGEN GROUPS
Info: RIGID BONDS TO HYDROGEN : ALL
Info:         ERROR TOLERANCE : 1e-08
Info:          MAX ITERATIONS : 100
Info: RIGID WATER USING SETTLE ALGORITHM
Info: RANDOM NUMBER SEED     1743764627
Info: USE HYDROGEN BONDS?    NO
Info: Using AMBER format force field!
Info: AMBER PARM FILE        mobley_4149784.prmtop
Info: COORDINATE PDB         mobley_4149784.pdb
Info: Exclusions will be read from PARM file!
Info: SCNB (VDW SCALING)     2
Info: USING ARITHMETIC MEAN TO COMBINE L-J SIGMA PARAMETERS
Info: BINARY COORDINATES     mobley_4149784_min.coor
Info: SUMMARY OF PARAMETERS:
Info: 6 BONDS
Info: 5 ANGLES
Info:   5 HARMONIC
Info:   0 COSINE-BASED
Info: 3 DIHEDRAL
Info: 0 IMPROPER
Info: 0 CROSSTERM
Info: 0 VDW
Info: 21 VDW_PAIRS
Info: 0 NBTHOLE_PAIRS
Info: STRUCTURE SUMMARY:
Info: 2986 ATOMS
Info: 2988 BONDS
Info: 38 ANGLES
Info: 68 DIHEDRALS
Info: 0 IMPROPERS
Info: 0 CROSSTERMS
Info: 3073 EXCLUSIONS
Info: 22 FIXED ATOMS
Info: 2970 RIGID BONDS
Info: 6 RIGID BONDS BETWEEN FIXED ATOMS
Info: 5928 DEGREES OF FREEDOM
Info: 1004 HYDROGEN GROUPS
Info: 3 ATOMS IN LARGEST HYDROGEN GROUP
Info: 1004 MIGRATION GROUPS
Info: 3 ATOMS IN LARGEST MIGRATION GROUP
Info: 16 HYDROGEN GROUPS WITH ALL ATOMS FIXED
Info: TOTAL MASS = 18052.9 amu
Info: TOTAL CHARGE = 9.99607e-05 e
Info: MASS DENSITY = 0.669959 g/cm^3
Info: ATOM DENSITY = 0.0667318 atoms/A^3
Info: ADDED 0 IMPLICIT EXCLUSIONS
Info: NONBONDED TABLE R-SQUARED SPACING: 0.0625
Info: NONBONDED TABLE SIZE: 705 POINTS
Info: REMOVING COM VELOCITY -0.0741983 -0.101706 0.0397432
TCL: Running for 100000 steps
ETITLE: TS BOND ANGLE DIHED IMPRP ELECT VDW BOUNDARY MISC KINETIC TOTAL TEMP POTENTIAL TOTAL3 TEMPAVG PRESSURE GPRESSURE VOLUME PRESSAVG GPRESSAVG
ENERGY: 0 0.0000 0.0000 0.0000 0.0000 -13755.8918 2388.3008 0.0000 0.0000 1768.1918 -9599.3992 300.2006 -11367.5910 -9599.0420 300.2006 193.8456 229.2962 44746.3150 193.8456 229.2962
ENERGY: 100000 0.0000 0.0000 0.0000 0.0000 -14368.6453 2533.6454 0.0000 0.0000 178.3439 -11656.6560 30.2789 -11834.9999 -11656.2249 30.8330 209.5340 273.9134 29966.1345 4.2323 4.1983
TCL: Running 100000 steps at 60 kelvin.
TCL: Setting parameter langevinTemp to 60
TCL: Running for 100000 steps
ETITLE: TS BOND ANGLE DIHED IMPRP ELECT VDW BOUNDARY MISC KINETIC TOTAL TEMP POTENTIAL TOTAL3 TEMPAVG PRESSURE GPRESSURE VOLUME PRESSAVG GPRESSAVG
ENERGY: 100000 0.0000 0.0000 0.0000 0.0000 -14368.6453 2533.6454 0.0000 0.0000 178.2598 -11656.7400 30.2647 -11834.9999 -11656.3261 30.2647 210.5044 273.9561 29966.1345 210.5044 273.9561
ENERGY: 200000 0.0000 0.0000 0.0000 0.0000 -14274.1832 2506.8709 0.0000 0.0000 340.8374 -11426.4749 57.8668 -11767.3123 -11425.5582 59.9299 448.3902 518.7537 29711.3591 3.8779 3.8258
TCL: Running 100000 steps at 90 kelvin.
TCL: Setting parameter langevinTemp to 90
TCL: Running for 100000 steps
ETITLE: TS BOND ANGLE DIHED IMPRP ELECT VDW BOUNDARY MISC KINETIC TOTAL TEMP POTENTIAL TOTAL3 TEMPAVG PRESSURE GPRESSURE VOLUME PRESSAVG GPRESSAVG
ENERGY: 200000 0.0000 0.0000 0.0000 0.0000 -14274.1832 2506.8709 0.0000 0.0000 340.6580 -11426.6543 57.8363 -11767.3123 -11426.0567 57.8363 475.4685 518.9879 29711.3591 475.4685 518.9879
ENERGY: 300000 0.0000 0.0000 0.0000 0.0000 -14154.3763 2451.4057 0.0000 0.0000 540.8852 -11162.0854 91.8306 -11702.9707 -11160.5525 89.9561 125.1386 196.7768 29783.3438 5.0018 4.9431
TCL: Running 100000 steps at 120 kelvin.
TCL: Setting parameter langevinTemp to 120
TCL: Running for 100000 steps
ETITLE: TS BOND ANGLE DIHED IMPRP ELECT VDW BOUNDARY MISC KINETIC TOTAL TEMP POTENTIAL TOTAL3 TEMPAVG PRESSURE GPRESSURE VOLUME PRESSAVG GPRESSAVG
ENERGY: 300000 0.0000 0.0000 0.0000 0.0000 -14154.3763 2451.4057 0.0000 0.0000 540.6334 -11162.3373 91.7878 -11702.9707 -11161.3577 91.7878 143.9767 197.1626 29783.3438 143.9767 197.1626
ENERGY: 400000 0.0000 0.0000 0.0000 0.0000 -13888.3532 2325.1838 0.0000 0.0000 730.7572 -10832.4121 124.0667 -11563.1693 -10829.7894 120.0815 -61.8517 -45.2669 29288.3199 3.5186 3.4926
TCL: Running 100000 steps at 150 kelvin.
TCL: Setting parameter langevinTemp to 150
TCL: Running for 100000 steps
ETITLE: TS BOND ANGLE DIHED IMPRP ELECT VDW BOUNDARY MISC KINETIC TOTAL TEMP POTENTIAL TOTAL3 TEMPAVG PRESSURE GPRESSURE VOLUME PRESSAVG GPRESSAVG
ENERGY: 400000 0.0000 0.0000 0.0000 0.0000 -13888.3532 2325.1838 0.0000 0.0000 730.3925 -10832.7768 124.0048 -11563.1693 -10831.4167 124.0048 -80.9739 -44.7479 29288.3199 -80.9739 -44.7479
ENERGY: 500000 0.0000 0.0000 0.0000 0.0000 -13684.3993 2277.4418 0.0000 0.0000 902.4222 -10504.5353 153.2117 -11406.9574 -10501.3727 149.8535 -64.6756 55.0234 29568.6431 4.2241 4.2467
TCL: Running 100000 steps at 180 kelvin.
TCL: Setting parameter langevinTemp to 180
TCL: Running for 100000 steps
ETITLE: TS BOND ANGLE DIHED IMPRP ELECT VDW BOUNDARY MISC KINETIC TOTAL TEMP POTENTIAL TOTAL3 TEMPAVG PRESSURE GPRESSURE VOLUME PRESSAVG GPRESSAVG
ENERGY: 500000 0.0000 0.0000 0.0000 0.0000 -13684.3993 2277.4418 0.0000 0.0000 901.9835 -10504.9740 153.1372 -11406.9574 -10503.0531 153.1372 11.7928 55.1264 29568.6431 11.7928 55.1264
ENERGY: 600000 0.0000 0.0000 0.0000 0.0000 -13204.0950 2101.1958 0.0000 0.0000 1043.7576 -10059.1415 177.2074 -11102.8991 -10056.0381 180.0108 -8.9129 117.9177 28912.9809 3.9826 4.0275
TCL: Running 100000 steps at 210 kelvin.
TCL: Setting parameter langevinTemp to 210
TCL: Running for 100000 steps
ETITLE: TS BOND ANGLE DIHED IMPRP ELECT VDW BOUNDARY MISC KINETIC TOTAL TEMP POTENTIAL TOTAL3 TEMPAVG PRESSURE GPRESSURE VOLUME PRESSAVG GPRESSAVG
ENERGY: 600000 0.0000 0.0000 0.0000 0.0000 -13204.0950 2101.1958 0.0000 0.0000 1043.2390 -10059.6601 177.1193 -11102.8991 -10057.6894 177.1193 60.5796 119.4875 28912.9809 60.5796 119.4875
ENERGY: 700000 0.0000 0.0000 0.0000 0.0000 -12590.0115 1897.9707 0.0000 0.0000 1195.5051 -9496.5358 202.9708 -10692.0408 -9495.1098 209.9453 78.2985 117.4616 28764.6556 4.1967 4.1426
TCL: Running 100000 steps at 240 kelvin.
TCL: Setting parameter langevinTemp to 240
TCL: Running for 100000 steps
ETITLE: TS BOND ANGLE DIHED IMPRP ELECT VDW BOUNDARY MISC KINETIC TOTAL TEMP POTENTIAL TOTAL3 TEMPAVG PRESSURE GPRESSURE VOLUME PRESSAVG GPRESSAVG
ENERGY: 700000 0.0000 0.0000 0.0000 0.0000 -12590.0115 1897.9707 0.0000 0.0000 1194.8448 -9497.1960 202.8587 -10692.0408 -9494.6599 202.8587 37.9364 116.4240 28764.6556 37.9364 116.4240
ENERGY: 800000 0.0000 0.0000 0.0000 0.0000 -11957.2326 1734.0485 0.0000 0.0000 1394.6401 -8828.5440 236.7796 -10223.1841 -8826.4712 240.3088 157.4737 246.9595 29134.7339 3.9642 3.9219
TCL: Running 100000 steps at 270 kelvin.
TCL: Setting parameter langevinTemp to 270
TCL: Running for 100000 steps
ETITLE: TS BOND ANGLE DIHED IMPRP ELECT VDW BOUNDARY MISC KINETIC TOTAL TEMP POTENTIAL TOTAL3 TEMPAVG PRESSURE GPRESSURE VOLUME PRESSAVG GPRESSAVG
ENERGY: 800000 0.0000 0.0000 0.0000 0.0000 -11957.2326 1734.0485 0.0000 0.0000 1393.9714 -8829.2127 236.6661 -10223.1841 -8827.1551 236.6661 170.5507 246.4052 29134.7339 170.5507 246.4052
ENERGY: 900000 0.0000 0.0000 0.0000 0.0000 -11425.3194 1603.4440 0.0000 0.0000 1595.2219 -8226.6536 270.8341 -9821.8755 -8221.1316 269.3348 44.4228 18.3788 30463.5007 2.5837 2.3324
TCL: Running 1000000 steps at 300 kelvin.
TCL: Setting parameter langevinTemp to 300
TCL: Running for 1000000 steps
ETITLE: TS BOND ANGLE DIHED IMPRP ELECT VDW BOUNDARY MISC KINETIC TOTAL TEMP POTENTIAL TOTAL3 TEMPAVG PRESSURE GPRESSURE VOLUME PRESSAVG GPRESSAVG
ENERGY: 900000 0.0000 0.0000 0.0000 0.0000 -11425.3194 1603.4440 0.0000 0.0000 1594.4495 -8227.4260 270.7029 -9821.8755 -8224.3056 270.7029 -35.0751 19.9883 30463.5007 -35.0751 19.9883
ENERGY: 1100000 0.0000 0.0000 0.0000 0.0000 -10750.0171 1377.5015 0.0000 0.0000 1741.4664 -7631.0492 295.6632 -9372.5156 -7627.7497 299.3777 -255.9491 -179.1523 30484.0313 4.2458 4.2574
ENERGY: 1300000 0.0000 0.0000 0.0000 0.0000 -10652.5098 1382.7831 0.0000 0.0000 1756.7175 -7513.0092 298.2525 -9269.7267 -7509.8040 300.2743 -284.7628 -205.1280 31148.6475 1.9511 1.8464
ENERGY: 1500000 0.0000 0.0000 0.0000 0.0000 -10816.8200 1472.3499 0.0000 0.0000 1703.4268 -7641.0434 289.2049 -9344.4701 -7637.4669 299.8120 407.1052 492.4956 30855.1941 3.8754 3.6878
ENERGY: 1700000 0.0000 0.0000 0.0000 0.0000 -10764.9893 1348.2018 0.0000 0.0000 1806.4484 -7610.3391 306.6957 -9416.7875 -7604.3963 299.7918 -1076.1188 -998.6779 31353.2126 3.0221 3.0661
ENERGY: 1900000 0.0000 0.0000 0.0000 0.0000 -10762.4543 1353.5224 0.0000 0.0000 1798.7083 -7610.2236 305.3816 -9408.9319 -7607.6625 299.7691 -586.9916 -511.8582 30436.0359 2.9706 2.9201
TCL: Exiting due to exit command.
