Info: SIMULATION PARAMETERS:
Info: TIMESTEP               2
Info: NUMBER OF STEPS        0
Info: STEPS PER CYCLE        10
Info: PERIODIC CELL BASIS 1  37.399 0 0
Info: PERIODIC CELL BASIS 2  0 34.696 0
Info: PERIODIC CELL BASIS 3  0 0 33.876
Info: PERIODIC CELL CENTER   0 0 0
Info: WRAPPING WATERS AROUND PERIODIC BOUNDARIES ON OUTPUT.
Info: WRAPPING ALL CLUSTERS AROUND PERIODIC BOUNDARIES ON OUTPUT.
Info: FIRST LDB TIMESTEP     50
Info: LAST LDB TIMESTEP     -1
Info: HOM BACKGROUND SCALING 1
Info: PME BACKGROUND SCALING 1
Info: MIN ATOMS PER PATCH    40
Info: EMPTY PATCH LOAD       40 ATOMS
Info: INITIAL TEMPERATURE    300
Info: CENTER OF MASS MOVING INITIALLY? NO
Info: DIELECTRIC             1
Info: EXCLUDE                SCALED ONE-FOUR
Info: 1-4 ELECTROSTATICS SCALED BY 0.833333
Info: MODIFIED 1-4 VDW PARAMETERS WILL BE USED
Info: DCD FILENAME           mobley_9139060_equil.dcd
Info: DCD FREQUENCY          100000
Info: DCD FIRST STEP         100000
Info: DCD FILE WILL CONTAIN UNIT CELL DATA
Info: XST FILENAME           mobley_9139060_equil.xst
Info: XST FREQUENCY          100000
Info: NO VELOCITY DCD OUTPUT
Info: NO FORCE DCD OUTPUT
Info: OUTPUT FILENAME        mobley_9139060_equil
Info: BINARY OUTPUT FILES WILL BE USED
Info: RESTART FILENAME       mobley_9139060_equil.restart
Info: RESTART FREQUENCY      100000
Info: BINARY RESTART FILES WILL BE USED
Info: CUTOFF                 9
Info: PAIRLIST DISTANCE      11
Info: PAIRLIST SHRINK RATE   0.01
Info: PAIRLIST GROW RATE     0.01
Info: PAIRLIST TRIGGER       0.3
Info: PAIRLISTS PER CYCLE    2
Info: PAIRLISTS ENABLED
Info: MARGIN                 8
Info: HYDROGEN GROUP CUTOFF  2.5
Info: PATCH DIMENSION        21.5
Info: ENERGY OUTPUT STEPS    100000
Info: ENERGY EVALUATION STEPS    100000
Info: OUTPUT ENERGY PRECISION 4
Info: CROSSTERM ENERGY INCLUDED IN DIHEDRAL
Info: TIMING OUTPUT STEPS    1000000
Info: PRESSURE OUTPUT STEPS  100000
Info: FIXED ATOMS ACTIVE
Info: LANGEVIN DYNAMICS ACTIVE
Info: LANGEVIN TEMPERATURE   30
Info: LANGEVIN USING BBK INTEGRATOR
Info: LANGEVIN DAMPING COEFFICIENT IS 1 INVERSE PS
Info: LANGEVIN DYNAMICS APPLIED TO HYDROGENS
Info: LANGEVIN PISTON PRESSURE CONTROL ACTIVE
Info:        TARGET PRESSURE IS 1.01325 BAR
Info:     OSCILLATION PERIOD IS 50 FS
Info:             DECAY TIME IS 25 FS
Info:     PISTON TEMPERATURE IS 300 K
Info:       PRESSURE CONTROL IS GROUP-BASED
Info:    INITIAL STRAIN RATE IS 0 0 0
Info:       CELL FLUCTUATION IS ISOTROPIC
Info: PARTICLE MESH EWALD (PME) ACTIVE
Info: PME TOLERANCE               1e-06
Info: PME EWALD COEFFICIENT       0.348832
Info: PME INTERPOLATION ORDER     4
Info: PME GRID DIMENSIONS         40 36 36
Info: PME MAXIMUM GRID SPACING    1
Info: FULL ELECTROSTATIC EVALUATION FREQUENCY      2
Info: USING VERLET I (r-RESPA) MTS SCHEME.
Info: C1 SPLITTING OF LONG RANGE ELECTROSTATICS
Info: PLACING ATOMS IN PATCHES BY HYDROGEN GROUPS
Info: RIGID BONDS TO HYDROGEN : ALL
Info:         ERROR TOLERANCE : 1e-08
Info:          MAX ITERATIONS : 100
Info: RIGID WATER USING SETTLE ALGORITHM
Info: RANDOM NUMBER SEED     1743765186
Info: USE HYDROGEN BONDS?    NO
Info: Using AMBER format force field!
Info: AMBER PARM FILE        mobley_9139060.prmtop
Info: COORDINATE PDB         mobley_9139060.pdb
Info: Exclusions will be read from PARM file!
Info: SCNB (VDW SCALING)     2
Info: USING ARITHMETIC MEAN TO COMBINE L-J SIGMA PARAMETERS
Info: BINARY COORDINATES     mobley_9139060_min.coor
Info: SUMMARY OF PARAMETERS:
Info: 4 BONDS
Info: 3 ANGLES
Info:   3 HARMONIC
Info:   0 COSINE-BASED
Info: 5 DIHEDRAL
Info: 0 IMPROPER
Info: 0 CROSSTERM
Info: 0 VDW
Info: 10 VDW_PAIRS
Info: 0 NBTHOLE_PAIRS
Info: STRUCTURE SUMMARY:
Info: 2931 ATOMS
Info: 2931 BONDS
Info: 48 ANGLES
Info: 92 DIHEDRALS
Info: 0 IMPROPERS
Info: 0 CROSSTERMS
Info: 3048 EXCLUSIONS
Info: 24 FIXED ATOMS
Info: 2923 RIGID BONDS
Info: 16 RIGID BONDS BETWEEN FIXED ATOMS
Info: 5814 DEGREES OF FREEDOM
Info: 977 HYDROGEN GROUPS
Info: 4 ATOMS IN LARGEST HYDROGEN GROUP
Info: 977 MIGRATION GROUPS
Info: 4 ATOMS IN LARGEST MIGRATION GROUP
Info: 8 HYDROGEN GROUPS WITH ALL ATOMS FIXED
Info: TOTAL MASS = 17569.7 amu
Info: TOTAL CHARGE = -0.000200011 e
Info: MASS DENSITY = 0.663731 g/cm^3
Info: ATOM DENSITY = 0.0666783 atoms/A^3
Info: ADDED 0 IMPLICIT EXCLUSIONS
Info: NONBONDED TABLE R-SQUARED SPACING: 0.0625
Info: NONBONDED TABLE SIZE: 705 POINTS
Info: REMOVING COM VELOCITY -0.102489 0.0223373 -0.0364674
TCL: Running for 100000 steps
ETITLE: TS BOND ANGLE DIHED IMPRP ELECT VDW BOUNDARY MISC KINETIC TOTAL TEMP POTENTIAL TOTAL3 TEMPAVG PRESSURE GPRESSURE VOLUME PRESSAVG GPRESSAVG
ENERGY: 0 0.0000 0.0000 0.0000 0.0000 -13522.3465 2378.1411 0.0000 0.0000 1753.3675 -9390.8378 303.5207 -11144.2053 -9390.4700 303.5207 305.7704 341.2517 43957.3521 305.7704 341.2517
ENERGY: 100000 0.0000 0.0000 0.0000 0.0000 -14102.6248 2484.2348 0.0000 0.0000 172.5799 -11445.8102 29.8748 -11618.3900 -11445.2905 30.9031 294.0566 347.5966 28659.8314 3.5077 3.5016
TCL: Running 100000 steps at 60 kelvin.
TCL: Setting parameter langevinTemp to 60
TCL: Running for 100000 steps
ETITLE: TS BOND ANGLE DIHED IMPRP ELECT VDW BOUNDARY MISC KINETIC TOTAL TEMP POTENTIAL TOTAL3 TEMPAVG PRESSURE GPRESSURE VOLUME PRESSAVG GPRESSAVG
ENERGY: 100000 0.0000 0.0000 0.0000 0.0000 -14102.6248 2484.2348 0.0000 0.0000 172.4956 -11445.8944 29.8603 -11618.3900 -11445.5503 29.8603 289.8069 347.4172 28659.8314 289.8069 347.4172
ENERGY: 200000 0.0000 0.0000 0.0000 0.0000 -13942.2614 2422.0889 0.0000 0.0000 345.9056 -11174.2669 59.8788 -11520.1725 -11173.2732 59.9614 254.7419 302.9609 28815.7417 4.5340 4.4513
TCL: Running 100000 steps at 90 kelvin.
TCL: Setting parameter langevinTemp to 90
TCL: Running for 100000 steps
ETITLE: TS BOND ANGLE DIHED IMPRP ELECT VDW BOUNDARY MISC KINETIC TOTAL TEMP POTENTIAL TOTAL3 TEMPAVG PRESSURE GPRESSURE VOLUME PRESSAVG GPRESSAVG
ENERGY: 200000 0.0000 0.0000 0.0000 0.0000 -13942.2614 2422.0889 0.0000 0.0000 345.7365 -11174.4360 59.8495 -11520.1725 -11173.8688 59.8495 256.1373 302.9071 28815.7417 256.1373 302.9071
ENERGY: 300000 0.0000 0.0000 0.0000 0.0000 -13745.8331 2324.3656 0.0000 0.0000 515.4785 -10905.9890 89.2331 -11421.4674 -10904.3160 89.9709 -122.4679 -70.5277 28514.9405 4.5323 4.5606
TCL: Running 100000 steps at 120 kelvin.
TCL: Setting parameter langevinTemp to 120
TCL: Running for 100000 steps
ETITLE: TS BOND ANGLE DIHED IMPRP ELECT VDW BOUNDARY MISC KINETIC TOTAL TEMP POTENTIAL TOTAL3 TEMPAVG PRESSURE GPRESSURE VOLUME PRESSAVG GPRESSAVG
ENERGY: 300000 0.0000 0.0000 0.0000 0.0000 -13745.8331 2324.3656 0.0000 0.0000 515.2168 -10906.2507 89.1878 -11421.4674 -10905.1760 89.1878 -117.5096 -70.0130 28514.9405 -117.5096 -70.0130
ENERGY: 400000 0.0000 0.0000 0.0000 0.0000 -13605.8678 2284.7170 0.0000 0.0000 684.1880 -10636.9627 118.4379 -11321.1508 -10635.2178 120.0875 28.3228 52.8797 28334.8093 4.2765 4.3303
TCL: Running 100000 steps at 150 kelvin.
TCL: Setting parameter langevinTemp to 150
TCL: Running for 100000 steps
ETITLE: TS BOND ANGLE DIHED IMPRP ELECT VDW BOUNDARY MISC KINETIC TOTAL TEMP POTENTIAL TOTAL3 TEMPAVG PRESSURE GPRESSURE VOLUME PRESSAVG GPRESSAVG
ENERGY: 400000 0.0000 0.0000 0.0000 0.0000 -13605.8678 2284.7170 0.0000 0.0000 683.8437 -10637.3071 118.3783 -11321.1508 -10635.7700 118.3783 14.2545 52.7231 28334.8093 14.2545 52.7231
ENERGY: 500000 0.0000 0.0000 0.0000 0.0000 -13454.5286 2275.4961 0.0000 0.0000 867.5113 -10311.5213 150.1725 -11179.0326 -10309.1135 150.0725 373.6419 437.7169 28480.5835 4.3231 4.4537
TCL: Running 100000 steps at 180 kelvin.
TCL: Setting parameter langevinTemp to 180
TCL: Running for 100000 steps
ETITLE: TS BOND ANGLE DIHED IMPRP ELECT VDW BOUNDARY MISC KINETIC TOTAL TEMP POTENTIAL TOTAL3 TEMPAVG PRESSURE GPRESSURE VOLUME PRESSAVG GPRESSAVG
ENERGY: 500000 0.0000 0.0000 0.0000 0.0000 -13454.5286 2275.4961 0.0000 0.0000 867.0643 -10311.9683 150.0951 -11179.0326 -10310.1501 150.0951 380.7596 437.9214 28480.5835 380.7596 437.9214
ENERGY: 600000 0.0000 0.0000 0.0000 0.0000 -12991.1283 2079.8659 0.0000 0.0000 1036.6512 -9874.6112 179.4519 -10911.2623 -9872.2722 179.8886 -148.2084 -77.2424 28427.5397 4.3918 4.3884
TCL: Running 100000 steps at 210 kelvin.
TCL: Setting parameter langevinTemp to 210
TCL: Running for 100000 steps
ETITLE: TS BOND ANGLE DIHED IMPRP ELECT VDW BOUNDARY MISC KINETIC TOTAL TEMP POTENTIAL TOTAL3 TEMPAVG PRESSURE GPRESSURE VOLUME PRESSAVG GPRESSAVG
ENERGY: 600000 0.0000 0.0000 0.0000 0.0000 -12991.1283 2079.8659 0.0000 0.0000 1036.1506 -9875.1118 179.3652 -10911.2623 -9873.3224 179.3652 -136.9702 -76.5034 28427.5397 -136.9702 -76.5034
ENERGY: 700000 0.0000 0.0000 0.0000 0.0000 -12190.9954 1744.9694 0.0000 0.0000 1235.0573 -9210.9687 213.7974 -10446.0260 -9208.5619 209.9682 -1329.3212 -1287.1207 28806.7480 5.0148 4.9316
TCL: Running 100000 steps at 240 kelvin.
TCL: Setting parameter langevinTemp to 240
TCL: Running for 100000 steps
ETITLE: TS BOND ANGLE DIHED IMPRP ELECT VDW BOUNDARY MISC KINETIC TOTAL TEMP POTENTIAL TOTAL3 TEMPAVG PRESSURE GPRESSURE VOLUME PRESSAVG GPRESSAVG
ENERGY: 700000 0.0000 0.0000 0.0000 0.0000 -12190.9954 1744.9694 0.0000 0.0000 1234.4404 -9211.5856 213.6906 -10446.0260 -9208.9077 213.6906 -1362.5209 -1288.1600 28806.7480 -1362.5209 -1288.1600
ENERGY: 800000 0.0000 0.0000 0.0000 0.0000 -11784.3547 1744.9036 0.0000 0.0000 1370.1046 -8669.3466 237.1751 -10039.4511 -8666.3678 239.8061 353.4718 529.4343 28301.8442 2.9499 2.8532
TCL: Running 100000 steps at 270 kelvin.
TCL: Setting parameter langevinTemp to 270
TCL: Running for 100000 steps
ETITLE: TS BOND ANGLE DIHED IMPRP ELECT VDW BOUNDARY MISC KINETIC TOTAL TEMP POTENTIAL TOTAL3 TEMPAVG PRESSURE GPRESSURE VOLUME PRESSAVG GPRESSAVG
ENERGY: 800000 0.0000 0.0000 0.0000 0.0000 -11784.3547 1744.9036 0.0000 0.0000 1369.4435 -8670.0077 237.0606 -10039.4511 -8668.1016 237.0606 441.5108 530.6749 28301.8442 441.5108 530.6749
ENERGY: 900000 0.0000 0.0000 0.0000 0.0000 -11116.5330 1556.2246 0.0000 0.0000 1615.4486 -7944.8598 279.6459 -9560.3084 -7941.1507 269.4917 -114.8258 -2.9575 29698.9173 4.2416 4.3106
TCL: Running 1000000 steps at 300 kelvin.
TCL: Setting parameter langevinTemp to 300
TCL: Running for 1000000 steps
ETITLE: TS BOND ANGLE DIHED IMPRP ELECT VDW BOUNDARY MISC KINETIC TOTAL TEMP POTENTIAL TOTAL3 TEMPAVG PRESSURE GPRESSURE VOLUME PRESSAVG GPRESSAVG
ENERGY: 900000 0.0000 0.0000 0.0000 0.0000 -11116.5330 1556.2246 0.0000 0.0000 1614.6458 -7945.6627 279.5070 -9560.3084 -7943.1608 279.5070 -71.5694 -2.6900 29698.9173 -71.5694 -2.6900
ENERGY: 1100000 0.0000 0.0000 0.0000 0.0000 -10515.7513 1397.3463 0.0000 0.0000 1735.5579 -7382.8470 300.4377 -9118.4049 -7378.0404 299.7211 -15.5272 33.4848 30352.4047 4.5996 4.3338
ENERGY: 1300000 0.0000 0.0000 0.0000 0.0000 -10633.3301 1468.6547 0.0000 0.0000 1766.0596 -7398.6158 305.7178 -9164.6754 -7395.3406 300.6104 218.3500 336.5342 30531.1826 2.4061 2.3910
ENERGY: 1500000 0.0000 0.0000 0.0000 0.0000 -10686.7806 1490.7124 0.0000 0.0000 1771.5552 -7424.5130 306.6691 -9196.0682 -7417.9232 299.9834 497.4933 627.0025 30188.7917 3.5312 3.6208
ENERGY: 1700000 0.0000 0.0000 0.0000 0.0000 -10665.3248 1449.1954 0.0000 0.0000 1728.4086 -7487.7208 299.2001 -9216.1295 -7484.5150 300.1737 228.7130 337.6895 29913.9061 2.5714 2.5406
ENERGY: 1900000 0.0000 0.0000 0.0000 0.0000 -10614.7844 1426.1371 0.0000 0.0000 1747.8230 -7440.8243 302.5609 -9188.6473 -7438.0516 300.2680 21.7121 125.9523 30092.3025 3.4893 3.5090
TCL: Exiting due to exit command.
