Info: SIMULATION PARAMETERS:
Info: TIMESTEP               2
Info: NUMBER OF STEPS        0
Info: STEPS PER CYCLE        10
Info: PERIODIC CELL BASIS 1  36.592 0 0
Info: PERIODIC CELL BASIS 2  0 35.411 0
Info: PERIODIC CELL BASIS 3  0 0 33.876
Info: PERIODIC CELL CENTER   0 0 0
Info: WRAPPING WATERS AROUND PERIODIC BOUNDARIES ON OUTPUT.
Info: WRAPPING ALL CLUSTERS AROUND PERIODIC BOUNDARIES ON OUTPUT.
Info: FIRST LDB TIMESTEP     50
Info: LAST LDB TIMESTEP     -1
Info: HOM BACKGROUND SCALING 1
Info: PME BACKGROUND SCALING 1
Info: MIN ATOMS PER PATCH    40
Info: EMPTY PATCH LOAD       40 ATOMS
Info: INITIAL TEMPERATURE    300
Info: CENTER OF MASS MOVING INITIALLY? NO
Info: DIELECTRIC             1
Info: EXCLUDE                SCALED ONE-FOUR
Info: 1-4 ELECTROSTATICS SCALED BY 0.833333
Info: MODIFIED 1-4 VDW PARAMETERS WILL BE USED
Info: DCD FILENAME           mobley_9100956_equil.dcd
Info: DCD FREQUENCY          100000
Info: DCD FIRST STEP         100000
Info: DCD FILE WILL CONTAIN UNIT CELL DATA
Info: XST FILENAME           mobley_9100956_equil.xst
Info: XST FREQUENCY          100000
Info: NO VELOCITY DCD OUTPUT
Info: NO FORCE DCD OUTPUT
Info: OUTPUT FILENAME        mobley_9100956_equil
Info: BINARY OUTPUT FILES WILL BE USED
Info: RESTART FILENAME       mobley_9100956_equil.restart
Info: RESTART FREQUENCY      100000
Info: BINARY RESTART FILES WILL BE USED
Info: CUTOFF                 9
Info: PAIRLIST DISTANCE      11
Info: PAIRLIST SHRINK RATE   0.01
Info: PAIRLIST GROW RATE     0.01
Info: PAIRLIST TRIGGER       0.3
Info: PAIRLISTS PER CYCLE    2
Info: PAIRLISTS ENABLED
Info: MARGIN                 8
Info: HYDROGEN GROUP CUTOFF  2.5
Info: PATCH DIMENSION        21.5
Info: ENERGY OUTPUT STEPS    100000
Info: ENERGY EVALUATION STEPS    100000
Info: OUTPUT ENERGY PRECISION 4
Info: CROSSTERM ENERGY INCLUDED IN DIHEDRAL
Info: TIMING OUTPUT STEPS    1000000
Info: PRESSURE OUTPUT STEPS  100000
Info: FIXED ATOMS ACTIVE
Info: LANGEVIN DYNAMICS ACTIVE
Info: LANGEVIN TEMPERATURE   30
Info: LANGEVIN USING BBK INTEGRATOR
Info: LANGEVIN DAMPING COEFFICIENT IS 1 INVERSE PS
Info: LANGEVIN DYNAMICS APPLIED TO HYDROGENS
Info: LANGEVIN PISTON PRESSURE CONTROL ACTIVE
Info:        TARGET PRESSURE IS 1.01325 BAR
Info:     OSCILLATION PERIOD IS 50 FS
Info:             DECAY TIME IS 25 FS
Info:     PISTON TEMPERATURE IS 300 K
Info:       PRESSURE CONTROL IS GROUP-BASED
Info:    INITIAL STRAIN RATE IS 0 0 0
Info:       CELL FLUCTUATION IS ISOTROPIC
Info: PARTICLE MESH EWALD (PME) ACTIVE
Info: PME TOLERANCE               1e-06
Info: PME EWALD COEFFICIENT       0.348832
Info: PME INTERPOLATION ORDER     4
Info: PME GRID DIMENSIONS         40 36 36
Info: PME MAXIMUM GRID SPACING    1
Info: FULL ELECTROSTATIC EVALUATION FREQUENCY      2
Info: USING VERLET I (r-RESPA) MTS SCHEME.
Info: C1 SPLITTING OF LONG RANGE ELECTROSTATICS
Info: PLACING ATOMS IN PATCHES BY HYDROGEN GROUPS
Info: RIGID BONDS TO HYDROGEN : ALL
Info:         ERROR TOLERANCE : 1e-08
Info:          MAX ITERATIONS : 100
Info: RIGID WATER USING SETTLE ALGORITHM
Info: RANDOM NUMBER SEED     1743764238
Info: USE HYDROGEN BONDS?    NO
Info: Using AMBER format force field!
Info: AMBER PARM FILE        mobley_9100956.prmtop
Info: COORDINATE PDB         mobley_9100956.pdb
Info: Exclusions will be read from PARM file!
Info: SCNB (VDW SCALING)     2
Info: USING ARITHMETIC MEAN TO COMBINE L-J SIGMA PARAMETERS
Info: BINARY COORDINATES     mobley_9100956_min.coor
Info: SUMMARY OF PARAMETERS:
Info: 4 BONDS
Info: 3 ANGLES
Info:   3 HARMONIC
Info:   0 COSINE-BASED
Info: 5 DIHEDRAL
Info: 0 IMPROPER
Info: 0 CROSSTERM
Info: 0 VDW
Info: 10 VDW_PAIRS
Info: 0 NBTHOLE_PAIRS
Info: STRUCTURE SUMMARY:
Info: 2937 ATOMS
Info: 2937 BONDS
Info: 42 ANGLES
Info: 79 DIHEDRALS
Info: 0 IMPROPERS
Info: 0 CROSSTERMS
Info: 3039 EXCLUSIONS
Info: 21 FIXED ATOMS
Info: 2930 RIGID BONDS
Info: 14 RIGID BONDS BETWEEN FIXED ATOMS
Info: 5832 DEGREES OF FREEDOM
Info: 979 HYDROGEN GROUPS
Info: 4 ATOMS IN LARGEST HYDROGEN GROUP
Info: 979 MIGRATION GROUPS
Info: 4 ATOMS IN LARGEST MIGRATION GROUP
Info: 7 HYDROGEN GROUPS WITH ALL ATOMS FIXED
Info: TOTAL MASS = 17609.7 amu
Info: TOTAL CHARGE = 0.000199977 e
Info: MASS DENSITY = 0.666186 g/cm^3
Info: ATOM DENSITY = 0.0669095 atoms/A^3
Info: ADDED 0 IMPLICIT EXCLUSIONS
Info: NONBONDED TABLE R-SQUARED SPACING: 0.0625
Info: NONBONDED TABLE SIZE: 705 POINTS
Info: REMOVING COM VELOCITY -0.114028 0.00141907 0.159001
TCL: Running for 100000 steps
ETITLE: TS BOND ANGLE DIHED IMPRP ELECT VDW BOUNDARY MISC KINETIC TOTAL TEMP POTENTIAL TOTAL3 TEMPAVG PRESSURE GPRESSURE VOLUME PRESSAVG GPRESSAVG
ENERGY: 0 0.0000 0.0000 0.0000 0.0000 -13526.5978 2389.2480 0.0000 0.0000 1751.3240 -9386.0258 302.2312 -11137.3498 -9385.6814 302.2312 486.9476 522.4466 43895.1425 486.9476 522.4466
ENERGY: 100000 0.0000 0.0000 0.0000 0.0000 -14152.1888 2535.0887 0.0000 0.0000 176.5286 -11440.5715 30.4641 -11617.1001 -11439.9586 30.9194 894.5137 938.2780 28666.3667 4.7273 4.6788
TCL: Running 100000 steps at 60 kelvin.
TCL: Setting parameter langevinTemp to 60
TCL: Running for 100000 steps
ETITLE: TS BOND ANGLE DIHED IMPRP ELECT VDW BOUNDARY MISC KINETIC TOTAL TEMP POTENTIAL TOTAL3 TEMPAVG PRESSURE GPRESSURE VOLUME PRESSAVG GPRESSAVG
ENERGY: 100000 0.0000 0.0000 0.0000 0.0000 -14152.1888 2535.0887 0.0000 0.0000 176.4407 -11440.6594 30.4489 -11617.1001 -11440.2953 30.4489 879.8485 938.4780 28666.3667 879.8485 938.4780
ENERGY: 200000 0.0000 0.0000 0.0000 0.0000 -13794.1036 2219.0236 0.0000 0.0000 347.9782 -11227.1017 60.0516 -11575.0799 -11226.4375 59.8366 -1648.1119 -1573.6129 28884.0026 3.3947 3.4350
TCL: Running 100000 steps at 90 kelvin.
TCL: Setting parameter langevinTemp to 90
TCL: Running for 100000 steps
ETITLE: TS BOND ANGLE DIHED IMPRP ELECT VDW BOUNDARY MISC KINETIC TOTAL TEMP POTENTIAL TOTAL3 TEMPAVG PRESSURE GPRESSURE VOLUME PRESSAVG GPRESSAVG
ENERGY: 200000 0.0000 0.0000 0.0000 0.0000 -13794.1036 2219.0236 0.0000 0.0000 347.8002 -11227.2797 60.0209 -11575.0799 -11226.3417 60.0209 -1632.1179 -1573.7077 28884.0026 -1632.1179 -1573.7077
ENERGY: 300000 0.0000 0.0000 0.0000 0.0000 -13880.0359 2405.5685 0.0000 0.0000 505.9064 -10968.5610 87.3058 -11474.4673 -10967.8519 89.9341 482.9474 512.8245 28344.4697 4.4346 4.3859
TCL: Running 100000 steps at 120 kelvin.
TCL: Setting parameter langevinTemp to 120
TCL: Running for 100000 steps
ETITLE: TS BOND ANGLE DIHED IMPRP ELECT VDW BOUNDARY MISC KINETIC TOTAL TEMP POTENTIAL TOTAL3 TEMPAVG PRESSURE GPRESSURE VOLUME PRESSAVG GPRESSAVG
ENERGY: 300000 0.0000 0.0000 0.0000 0.0000 -13880.0359 2405.5685 0.0000 0.0000 505.6385 -10968.8289 87.2595 -11474.4673 -10967.9464 87.2595 467.2939 512.7508 28344.4697 467.2939 512.7508
ENERGY: 400000 0.0000 0.0000 0.0000 0.0000 -13565.7075 2230.3863 0.0000 0.0000 701.6099 -10633.7113 121.0789 -11335.3212 -10632.0685 120.2300 -528.0382 -484.1061 28663.5984 3.7865 3.9197
TCL: Running 100000 steps at 150 kelvin.
TCL: Setting parameter langevinTemp to 150
TCL: Running for 100000 steps
ETITLE: TS BOND ANGLE DIHED IMPRP ELECT VDW BOUNDARY MISC KINETIC TOTAL TEMP POTENTIAL TOTAL3 TEMPAVG PRESSURE GPRESSURE VOLUME PRESSAVG GPRESSAVG
ENERGY: 400000 0.0000 0.0000 0.0000 0.0000 -13565.7075 2230.3863 0.0000 0.0000 701.2538 -10634.0674 121.0175 -11335.3212 -10632.7504 121.0175 -536.8401 -484.3426 28663.5984 -536.8401 -484.3426
ENERGY: 500000 0.0000 0.0000 0.0000 0.0000 -13422.3346 2234.7333 0.0000 0.0000 898.5307 -10289.0707 155.0621 -11187.6013 -10286.6800 149.9615 -21.5104 35.8792 28706.6037 2.7362 2.7415
TCL: Running 100000 steps at 180 kelvin.
TCL: Setting parameter langevinTemp to 180
TCL: Running for 100000 steps
ETITLE: TS BOND ANGLE DIHED IMPRP ELECT VDW BOUNDARY MISC KINETIC TOTAL TEMP POTENTIAL TOTAL3 TEMPAVG PRESSURE GPRESSURE VOLUME PRESSAVG GPRESSAVG
ENERGY: 500000 0.0000 0.0000 0.0000 0.0000 -13422.3346 2234.7333 0.0000 0.0000 898.0803 -10289.5210 154.9844 -11187.6013 -10287.6815 154.9844 -11.5444 36.4517 28706.6037 -11.5444 36.4517
ENERGY: 600000 0.0000 0.0000 0.0000 0.0000 -13127.0760 2220.3512 0.0000 0.0000 1062.6558 -9844.0690 183.3857 -10906.7248 -9841.8056 179.6074 952.2199 1003.2920 28718.1004 1.9599 2.0873
TCL: Running 100000 steps at 210 kelvin.
TCL: Setting parameter langevinTemp to 210
TCL: Running for 100000 steps
ETITLE: TS BOND ANGLE DIHED IMPRP ELECT VDW BOUNDARY MISC KINETIC TOTAL TEMP POTENTIAL TOTAL3 TEMPAVG PRESSURE GPRESSURE VOLUME PRESSAVG GPRESSAVG
ENERGY: 600000 0.0000 0.0000 0.0000 0.0000 -13127.0760 2220.3512 0.0000 0.0000 1062.1434 -9844.5814 183.2973 -10906.7248 -9843.4509 183.2973 957.9372 1003.9584 28718.1004 957.9372 1003.9584
ENERGY: 700000 0.0000 0.0000 0.0000 0.0000 -12295.5038 1829.6973 0.0000 0.0000 1196.3177 -9269.4889 206.4521 -10465.8065 -9266.9791 209.4092 -438.1931 -372.7466 28421.7513 4.4860 4.5293
TCL: Running 100000 steps at 240 kelvin.
TCL: Setting parameter langevinTemp to 240
TCL: Running for 100000 steps
ETITLE: TS BOND ANGLE DIHED IMPRP ELECT VDW BOUNDARY MISC KINETIC TOTAL TEMP POTENTIAL TOTAL3 TEMPAVG PRESSURE GPRESSURE VOLUME PRESSAVG GPRESSAVG
ENERGY: 700000 0.0000 0.0000 0.0000 0.0000 -12295.5038 1829.6973 0.0000 0.0000 1195.7365 -9270.0701 206.3518 -10465.8065 -9268.2517 206.3518 -445.0954 -373.5002 28421.7513 -445.0954 -373.5002
ENERGY: 800000 0.0000 0.0000 0.0000 0.0000 -11647.1152 1681.7906 0.0000 0.0000 1389.7486 -8575.5761 239.8331 -9965.3246 -8573.6106 240.0510 -54.4568 -9.6600 29000.5357 4.1656 4.0338
TCL: Running 100000 steps at 270 kelvin.
TCL: Setting parameter langevinTemp to 270
TCL: Running for 100000 steps
ETITLE: TS BOND ANGLE DIHED IMPRP ELECT VDW BOUNDARY MISC KINETIC TOTAL TEMP POTENTIAL TOTAL3 TEMPAVG PRESSURE GPRESSURE VOLUME PRESSAVG GPRESSAVG
ENERGY: 800000 0.0000 0.0000 0.0000 0.0000 -11647.1152 1681.7906 0.0000 0.0000 1389.0758 -8576.2488 239.7170 -9965.3246 -8574.2824 239.7170 -71.7603 -9.2981 29000.5357 -71.7603 -9.2981
ENERGY: 900000 0.0000 0.0000 0.0000 0.0000 -11347.1540 1711.3528 0.0000 0.0000 1545.5687 -8090.2324 266.7234 -9635.8012 -8090.9014 270.3286 1259.1002 1358.9408 29112.6632 2.8465 2.8223
TCL: Running 1000000 steps at 300 kelvin.
TCL: Setting parameter langevinTemp to 300
TCL: Running for 1000000 steps
ETITLE: TS BOND ANGLE DIHED IMPRP ELECT VDW BOUNDARY MISC KINETIC TOTAL TEMP POTENTIAL TOTAL3 TEMPAVG PRESSURE GPRESSURE VOLUME PRESSAVG GPRESSAVG
ENERGY: 900000 0.0000 0.0000 0.0000 0.0000 -11347.1540 1711.3528 0.0000 0.0000 1544.7580 -8091.0431 266.5835 -9635.8012 -8088.9814 266.5835 1263.6845 1357.5680 29112.6632 1263.6845 1357.5680
ENERGY: 1100000 0.0000 0.0000 0.0000 0.0000 -10698.5109 1473.7681 0.0000 0.0000 1729.5363 -7495.2065 298.4713 -9224.7428 -7490.7752 300.1608 265.3289 391.2978 30129.9320 3.2004 3.2080
ENERGY: 1300000 0.0000 0.0000 0.0000 0.0000 -10710.4466 1502.1650 0.0000 0.0000 1753.9526 -7454.3290 302.6849 -9208.2816 -7453.7161 299.9439 961.9762 1017.1336 29476.4007 4.5162 4.5877
ENERGY: 1500000 0.0000 0.0000 0.0000 0.0000 -10675.1757 1459.0851 0.0000 0.0000 1680.7223 -7535.3682 290.0473 -9216.0906 -7531.9473 300.2535 145.2523 172.3019 30203.9938 3.0306 2.9599
ENERGY: 1700000 0.0000 0.0000 0.0000 0.0000 -10521.1228 1346.0011 0.0000 0.0000 1720.2699 -7454.8518 296.8722 -9175.1217 -7452.7909 299.6845 -914.9241 -830.0153 31091.7270 1.8938 1.9215
ENERGY: 1900000 0.0000 0.0000 0.0000 0.0000 -10723.6130 1448.0598 0.0000 0.0000 1749.9746 -7525.5786 301.9984 -9275.5532 -7519.3911 300.7588 -60.9424 69.9072 30184.5896 3.5286 3.4370
TCL: Exiting due to exit command.
