Info: SIMULATION PARAMETERS:
Info: TIMESTEP               2
Info: NUMBER OF STEPS        0
Info: STEPS PER CYCLE        10
Info: PERIODIC CELL BASIS 1  37.435 0 0
Info: PERIODIC CELL BASIS 2  0 35.411 0
Info: PERIODIC CELL BASIS 3  0 0 31.561
Info: PERIODIC CELL CENTER   0 0 0
Info: WRAPPING WATERS AROUND PERIODIC BOUNDARIES ON OUTPUT.
Info: WRAPPING ALL CLUSTERS AROUND PERIODIC BOUNDARIES ON OUTPUT.
Info: FIRST LDB TIMESTEP     50
Info: LAST LDB TIMESTEP     -1
Info: HOM BACKGROUND SCALING 1
Info: PME BACKGROUND SCALING 1
Info: MIN ATOMS PER PATCH    40
Info: EMPTY PATCH LOAD       40 ATOMS
Info: INITIAL TEMPERATURE    300
Info: CENTER OF MASS MOVING INITIALLY? NO
Info: DIELECTRIC             1
Info: EXCLUDE                SCALED ONE-FOUR
Info: 1-4 ELECTROSTATICS SCALED BY 0.833333
Info: MODIFIED 1-4 VDW PARAMETERS WILL BE USED
Info: DCD FILENAME           mobley_4039055_equil.dcd
Info: DCD FREQUENCY          100000
Info: DCD FIRST STEP         100000
Info: DCD FILE WILL CONTAIN UNIT CELL DATA
Info: XST FILENAME           mobley_4039055_equil.xst
Info: XST FREQUENCY          100000
Info: NO VELOCITY DCD OUTPUT
Info: NO FORCE DCD OUTPUT
Info: OUTPUT FILENAME        mobley_4039055_equil
Info: BINARY OUTPUT FILES WILL BE USED
Info: RESTART FILENAME       mobley_4039055_equil.restart
Info: RESTART FREQUENCY      100000
Info: BINARY RESTART FILES WILL BE USED
Info: CUTOFF                 9
Info: PAIRLIST DISTANCE      11
Info: PAIRLIST SHRINK RATE   0.01
Info: PAIRLIST GROW RATE     0.01
Info: PAIRLIST TRIGGER       0.3
Info: PAIRLISTS PER CYCLE    2
Info: PAIRLISTS ENABLED
Info: MARGIN                 8
Info: HYDROGEN GROUP CUTOFF  2.5
Info: PATCH DIMENSION        21.5
Info: ENERGY OUTPUT STEPS    100000
Info: ENERGY EVALUATION STEPS    100000
Info: OUTPUT ENERGY PRECISION 4
Info: CROSSTERM ENERGY INCLUDED IN DIHEDRAL
Info: TIMING OUTPUT STEPS    1000000
Info: PRESSURE OUTPUT STEPS  100000
Info: FIXED ATOMS ACTIVE
Info: LANGEVIN DYNAMICS ACTIVE
Info: LANGEVIN TEMPERATURE   30
Info: LANGEVIN USING BBK INTEGRATOR
Info: LANGEVIN DAMPING COEFFICIENT IS 1 INVERSE PS
Info: LANGEVIN DYNAMICS APPLIED TO HYDROGENS
Info: LANGEVIN PISTON PRESSURE CONTROL ACTIVE
Info:        TARGET PRESSURE IS 1.01325 BAR
Info:     OSCILLATION PERIOD IS 50 FS
Info:             DECAY TIME IS 25 FS
Info:     PISTON TEMPERATURE IS 300 K
Info:       PRESSURE CONTROL IS GROUP-BASED
Info:    INITIAL STRAIN RATE IS 0 0 0
Info:       CELL FLUCTUATION IS ISOTROPIC
Info: PARTICLE MESH EWALD (PME) ACTIVE
Info: PME TOLERANCE               1e-06
Info: PME EWALD COEFFICIENT       0.348832
Info: PME INTERPOLATION ORDER     4
Info: PME GRID DIMENSIONS         40 36 32
Info: PME MAXIMUM GRID SPACING    1
Info: FULL ELECTROSTATIC EVALUATION FREQUENCY      2
Info: USING VERLET I (r-RESPA) MTS SCHEME.
Info: C1 SPLITTING OF LONG RANGE ELECTROSTATICS
Info: PLACING ATOMS IN PATCHES BY HYDROGEN GROUPS
Info: RIGID BONDS TO HYDROGEN : ALL
Info:         ERROR TOLERANCE : 1e-08
Info:          MAX ITERATIONS : 100
Info: RIGID WATER USING SETTLE ALGORITHM
Info: RANDOM NUMBER SEED     1743720318
Info: USE HYDROGEN BONDS?    NO
Info: Using AMBER format force field!
Info: AMBER PARM FILE        mobley_4039055.prmtop
Info: COORDINATE PDB         mobley_4039055.pdb
Info: Exclusions will be read from PARM file!
Info: SCNB (VDW SCALING)     2
Info: USING ARITHMETIC MEAN TO COMBINE L-J SIGMA PARAMETERS
Info: BINARY COORDINATES     mobley_4039055_min.coor
Info: SUMMARY OF PARAMETERS:
Info: 10 BONDS
Info: 14 ANGLES
Info:   14 HARMONIC
Info:   0 COSINE-BASED
Info: 7 DIHEDRAL
Info: 0 IMPROPER
Info: 0 CROSSTERM
Info: 0 VDW
Info: 36 VDW_PAIRS
Info: 0 NBTHOLE_PAIRS
Info: STRUCTURE SUMMARY:
Info: 2907 ATOMS
Info: 2907 BONDS
Info: 18 ANGLES
Info: 33 DIHEDRALS
Info: 0 IMPROPERS
Info: 0 CROSSTERMS
Info: 2946 EXCLUSIONS
Info: 12 FIXED ATOMS
Info: 2898 RIGID BONDS
Info: 3 RIGID BONDS BETWEEN FIXED ATOMS
Info: 5790 DEGREES OF FREEDOM
Info: 974 HYDROGEN GROUPS
Info: 3 ATOMS IN LARGEST HYDROGEN GROUP
Info: 974 MIGRATION GROUPS
Info: 3 ATOMS IN LARGEST MIGRATION GROUP
Info: 9 HYDROGEN GROUPS WITH ALL ATOMS FIXED
Info: TOTAL MASS = 17576.4 amu
Info: TOTAL CHARGE = 4.19095e-08 e
Info: MASS DENSITY = 0.697627 g/cm^3
Info: ATOM DENSITY = 0.0694829 atoms/A^3
Info: ADDED 0 IMPLICIT EXCLUSIONS
Info: NONBONDED TABLE R-SQUARED SPACING: 0.0625
Info: NONBONDED TABLE SIZE: 705 POINTS
Info: REMOVING COM VELOCITY -0.195516 0.0267644 0.075957
TCL: Running for 100000 steps
ETITLE: TS BOND ANGLE DIHED IMPRP ELECT VDW BOUNDARY MISC KINETIC TOTAL TEMP POTENTIAL TOTAL3 TEMPAVG PRESSURE GPRESSURE VOLUME PRESSAVG GPRESSAVG
ENERGY: 0 0.0000 0.0000 0.0000 0.0000 -13665.7053 2358.3498 0.0000 0.0000 1680.7536 -9626.6019 292.1567 -11307.3555 -9626.2720 292.1567 226.6155 257.6309 41837.6020 226.6155 257.6309
ENERGY: 100000 0.0000 0.0000 0.0000 0.0000 -14222.1004 2481.0440 0.0000 0.0000 169.5154 -11571.5409 29.4660 -11741.0563 -11571.0049 30.8265 359.1832 413.5993 28559.8878 3.9434 3.9463
TCL: Running 100000 steps at 60 kelvin.
TCL: Setting parameter langevinTemp to 60
TCL: Running for 100000 steps
ETITLE: TS BOND ANGLE DIHED IMPRP ELECT VDW BOUNDARY MISC KINETIC TOTAL TEMP POTENTIAL TOTAL3 TEMPAVG PRESSURE GPRESSURE VOLUME PRESSAVG GPRESSAVG
ENERGY: 100000 0.0000 0.0000 0.0000 0.0000 -14222.1004 2481.0440 0.0000 0.0000 169.4278 -11571.6285 29.4508 -11741.0563 -11571.2806 29.4508 359.7288 413.8243 28559.8878 359.7288 413.8243
ENERGY: 200000 0.0000 0.0000 0.0000 0.0000 -14031.0546 2342.8794 0.0000 0.0000 347.9779 -11340.1973 60.4872 -11688.1752 -11339.8056 59.9695 -450.7521 -390.1270 28376.0268 3.9891 3.9578
TCL: Running 100000 steps at 90 kelvin.
TCL: Setting parameter langevinTemp to 90
TCL: Running for 100000 steps
ETITLE: TS BOND ANGLE DIHED IMPRP ELECT VDW BOUNDARY MISC KINETIC TOTAL TEMP POTENTIAL TOTAL3 TEMPAVG PRESSURE GPRESSURE VOLUME PRESSAVG GPRESSAVG
ENERGY: 200000 0.0000 0.0000 0.0000 0.0000 -14031.0546 2342.8794 0.0000 0.0000 347.8047 -11340.3705 60.4571 -11688.1752 -11339.7508 60.4571 -436.1563 -390.4922 28376.0268 -436.1563 -390.4922
ENERGY: 300000 0.0000 0.0000 0.0000 0.0000 -14054.0439 2419.2393 0.0000 0.0000 528.7017 -11106.1029 91.9015 -11634.8046 -11105.2608 89.8863 470.3870 512.4724 28289.5139 5.0159 4.9170
TCL: Running 100000 steps at 120 kelvin.
TCL: Setting parameter langevinTemp to 120
TCL: Running for 100000 steps
ETITLE: TS BOND ANGLE DIHED IMPRP ELECT VDW BOUNDARY MISC KINETIC TOTAL TEMP POTENTIAL TOTAL3 TEMPAVG PRESSURE GPRESSURE VOLUME PRESSAVG GPRESSAVG
ENERGY: 300000 0.0000 0.0000 0.0000 0.0000 -14054.0439 2419.2393 0.0000 0.0000 528.4499 -11106.3546 91.8577 -11634.8046 -11105.1465 91.8577 458.8055 512.3487 28289.5139 458.8055 512.3487
ENERGY: 400000 0.0000 0.0000 0.0000 0.0000 -13908.5672 2410.9872 0.0000 0.0000 682.4400 -10815.1400 118.6250 -11497.5800 -10813.2442 119.7957 1178.4345 1186.6484 27962.0319 4.0713 3.9607
TCL: Running 100000 steps at 150 kelvin.
TCL: Setting parameter langevinTemp to 150
TCL: Running for 100000 steps
ETITLE: TS BOND ANGLE DIHED IMPRP ELECT VDW BOUNDARY MISC KINETIC TOTAL TEMP POTENTIAL TOTAL3 TEMPAVG PRESSURE GPRESSURE VOLUME PRESSAVG GPRESSAVG
ENERGY: 400000 0.0000 0.0000 0.0000 0.0000 -13908.5672 2410.9872 0.0000 0.0000 682.0982 -10815.4818 118.5656 -11497.5800 -10814.2756 118.5656 1136.5088 1187.0327 27962.0319 1136.5088 1187.0327
ENERGY: 500000 0.0000 0.0000 0.0000 0.0000 -13578.0425 2269.8679 0.0000 0.0000 851.7084 -10456.4662 148.0481 -11308.1746 -10454.0366 150.2722 708.8902 747.8428 28222.2631 4.7971 4.7134
TCL: Running 100000 steps at 180 kelvin.
TCL: Setting parameter langevinTemp to 180
TCL: Running for 100000 steps
ETITLE: TS BOND ANGLE DIHED IMPRP ELECT VDW BOUNDARY MISC KINETIC TOTAL TEMP POTENTIAL TOTAL3 TEMPAVG PRESSURE GPRESSURE VOLUME PRESSAVG GPRESSAVG
ENERGY: 500000 0.0000 0.0000 0.0000 0.0000 -13578.0425 2269.8679 0.0000 0.0000 851.2849 -10456.8897 147.9745 -11308.1746 -10455.7413 147.9745 665.3562 747.0099 28222.2631 665.3562 747.0099
ENERGY: 600000 0.0000 0.0000 0.0000 0.0000 -13026.7503 2010.9575 0.0000 0.0000 1050.2914 -9965.5014 182.5667 -11015.7928 -9962.5249 179.9326 -686.5309 -539.8312 28476.8534 3.7601 3.7126
TCL: Running 100000 steps at 210 kelvin.
TCL: Setting parameter langevinTemp to 210
TCL: Running for 100000 steps
ETITLE: TS BOND ANGLE DIHED IMPRP ELECT VDW BOUNDARY MISC KINETIC TOTAL TEMP POTENTIAL TOTAL3 TEMPAVG PRESSURE GPRESSURE VOLUME PRESSAVG GPRESSAVG
ENERGY: 600000 0.0000 0.0000 0.0000 0.0000 -13026.7503 2010.9575 0.0000 0.0000 1049.7806 -9966.0122 182.4779 -11015.7928 -9964.3447 182.4779 -603.8721 -538.6793 28476.8534 -603.8721 -538.6793
ENERGY: 700000 0.0000 0.0000 0.0000 0.0000 -12476.4303 1873.0456 0.0000 0.0000 1189.6126 -9413.7721 206.7842 -10603.3847 -9412.2479 209.9113 2.3009 23.1116 28385.6945 4.1636 4.0708
TCL: Running 100000 steps at 240 kelvin.
TCL: Setting parameter langevinTemp to 240
TCL: Running for 100000 steps
ETITLE: TS BOND ANGLE DIHED IMPRP ELECT VDW BOUNDARY MISC KINETIC TOTAL TEMP POTENTIAL TOTAL3 TEMPAVG PRESSURE GPRESSURE VOLUME PRESSAVG GPRESSAVG
ENERGY: 700000 0.0000 0.0000 0.0000 0.0000 -12476.4303 1873.0456 0.0000 0.0000 1189.0053 -9414.3794 206.6786 -10603.3847 -9412.3360 206.6786 -55.3636 21.9684 28385.6945 -55.3636 21.9684
ENERGY: 800000 0.0000 0.0000 0.0000 0.0000 -11891.3615 1737.3876 0.0000 0.0000 1391.2235 -8762.7505 241.8292 -10153.9739 -8758.6951 239.6604 26.5913 111.7870 28997.1810 2.4820 2.5243
TCL: Running 100000 steps at 270 kelvin.
TCL: Setting parameter langevinTemp to 270
TCL: Running for 100000 steps
ETITLE: TS BOND ANGLE DIHED IMPRP ELECT VDW BOUNDARY MISC KINETIC TOTAL TEMP POTENTIAL TOTAL3 TEMPAVG PRESSURE GPRESSURE VOLUME PRESSAVG GPRESSAVG
ENERGY: 800000 0.0000 0.0000 0.0000 0.0000 -11891.3615 1737.3876 0.0000 0.0000 1390.5294 -8763.4445 241.7085 -10153.9739 -8760.7236 241.7085 17.4498 111.2864 28997.1810 17.4498 111.2864
ENERGY: 900000 0.0000 0.0000 0.0000 0.0000 -11247.0940 1496.8902 0.0000 0.0000 1567.5916 -8182.6121 272.4864 -9750.2037 -8179.5752 269.7878 -567.4885 -498.1559 29503.4477 3.4545 3.4079
TCL: Running 1000000 steps at 300 kelvin.
TCL: Setting parameter langevinTemp to 300
TCL: Running for 1000000 steps
ETITLE: TS BOND ANGLE DIHED IMPRP ELECT VDW BOUNDARY MISC KINETIC TOTAL TEMP POTENTIAL TOTAL3 TEMPAVG PRESSURE GPRESSURE VOLUME PRESSAVG GPRESSAVG
ENERGY: 900000 0.0000 0.0000 0.0000 0.0000 -11247.0940 1496.8902 0.0000 0.0000 1566.8122 -8183.3915 272.3509 -9750.2037 -8180.3000 272.3509 -579.2443 -497.4854 29503.4477 -579.2443 -497.4854
ENERGY: 1100000 0.0000 0.0000 0.0000 0.0000 -10707.6491 1459.2205 0.0000 0.0000 1746.5916 -7501.8370 303.6010 -9248.4287 -7498.1927 300.5754 541.4859 629.7328 30118.6002 3.9117 3.9978
ENERGY: 1300000 0.0000 0.0000 0.0000 0.0000 -10822.3809 1433.7961 0.0000 0.0000 1787.5374 -7601.0473 310.7184 -9388.5848 -7596.7518 300.2871 6.6197 116.0928 29868.6289 2.8110 2.9648
ENERGY: 1500000 0.0000 0.0000 0.0000 0.0000 -10791.7635 1429.9567 0.0000 0.0000 1742.1515 -7619.6553 302.8292 -9361.8067 -7617.2237 300.2679 38.0524 140.0618 29808.7715 4.2275 4.2282
ENERGY: 1700000 0.0000 0.0000 0.0000 0.0000 -10685.5679 1401.1066 0.0000 0.0000 1742.7518 -7541.7094 302.9335 -9284.4612 -7538.4917 299.6332 -260.8482 -110.0009 30373.8104 3.6718 3.7403
ENERGY: 1900000 0.0000 0.0000 0.0000 0.0000 -10627.8317 1361.4033 0.0000 0.0000 1692.1404 -7574.2880 294.1360 -9266.4284 -7570.9168 300.5140 -497.7559 -345.4317 30345.5811 2.4608 2.3651
TCL: Exiting due to exit command.
