Info: SIMULATION PARAMETERS:
Info: TIMESTEP               2
Info: NUMBER OF STEPS        0
Info: STEPS PER CYCLE        10
Info: PERIODIC CELL BASIS 1  37.133 0 0
Info: PERIODIC CELL BASIS 2  0 34.26 0
Info: PERIODIC CELL BASIS 3  0 0 34.229
Info: PERIODIC CELL CENTER   0 0 0
Info: WRAPPING WATERS AROUND PERIODIC BOUNDARIES ON OUTPUT.
Info: WRAPPING ALL CLUSTERS AROUND PERIODIC BOUNDARIES ON OUTPUT.
Info: FIRST LDB TIMESTEP     50
Info: LAST LDB TIMESTEP     -1
Info: HOM BACKGROUND SCALING 1
Info: PME BACKGROUND SCALING 1
Info: MIN ATOMS PER PATCH    40
Info: EMPTY PATCH LOAD       40 ATOMS
Info: INITIAL TEMPERATURE    300
Info: CENTER OF MASS MOVING INITIALLY? NO
Info: DIELECTRIC             1
Info: EXCLUDE                SCALED ONE-FOUR
Info: 1-4 ELECTROSTATICS SCALED BY 0.833333
Info: MODIFIED 1-4 VDW PARAMETERS WILL BE USED
Info: DCD FILENAME           mobley_1662128_equil.dcd
Info: DCD FREQUENCY          100000
Info: DCD FIRST STEP         100000
Info: DCD FILE WILL CONTAIN UNIT CELL DATA
Info: XST FILENAME           mobley_1662128_equil.xst
Info: XST FREQUENCY          100000
Info: NO VELOCITY DCD OUTPUT
Info: NO FORCE DCD OUTPUT
Info: OUTPUT FILENAME        mobley_1662128_equil
Info: BINARY OUTPUT FILES WILL BE USED
Info: RESTART FILENAME       mobley_1662128_equil.restart
Info: RESTART FREQUENCY      100000
Info: BINARY RESTART FILES WILL BE USED
Info: CUTOFF                 9
Info: PAIRLIST DISTANCE      11
Info: PAIRLIST SHRINK RATE   0.01
Info: PAIRLIST GROW RATE     0.01
Info: PAIRLIST TRIGGER       0.3
Info: PAIRLISTS PER CYCLE    2
Info: PAIRLISTS ENABLED
Info: MARGIN                 8
Info: HYDROGEN GROUP CUTOFF  2.5
Info: PATCH DIMENSION        21.5
Info: ENERGY OUTPUT STEPS    100000
Info: ENERGY EVALUATION STEPS    100000
Info: OUTPUT ENERGY PRECISION 4
Info: CROSSTERM ENERGY INCLUDED IN DIHEDRAL
Info: TIMING OUTPUT STEPS    1000000
Info: PRESSURE OUTPUT STEPS  100000
Info: FIXED ATOMS ACTIVE
Info: LANGEVIN DYNAMICS ACTIVE
Info: LANGEVIN TEMPERATURE   30
Info: LANGEVIN USING BBK INTEGRATOR
Info: LANGEVIN DAMPING COEFFICIENT IS 1 INVERSE PS
Info: LANGEVIN DYNAMICS APPLIED TO HYDROGENS
Info: LANGEVIN PISTON PRESSURE CONTROL ACTIVE
Info:        TARGET PRESSURE IS 1.01325 BAR
Info:     OSCILLATION PERIOD IS 50 FS
Info:             DECAY TIME IS 25 FS
Info:     PISTON TEMPERATURE IS 300 K
Info:       PRESSURE CONTROL IS GROUP-BASED
Info:    INITIAL STRAIN RATE IS 0 0 0
Info:       CELL FLUCTUATION IS ISOTROPIC
Info: PARTICLE MESH EWALD (PME) ACTIVE
Info: PME TOLERANCE               1e-06
Info: PME EWALD COEFFICIENT       0.348832
Info: PME INTERPOLATION ORDER     4
Info: PME GRID DIMENSIONS         40 36 36
Info: PME MAXIMUM GRID SPACING    1
Info: FULL ELECTROSTATIC EVALUATION FREQUENCY      2
Info: USING VERLET I (r-RESPA) MTS SCHEME.
Info: C1 SPLITTING OF LONG RANGE ELECTROSTATICS
Info: PLACING ATOMS IN PATCHES BY HYDROGEN GROUPS
Info: RIGID BONDS TO HYDROGEN : ALL
Info:         ERROR TOLERANCE : 1e-08
Info:          MAX ITERATIONS : 100
Info: RIGID WATER USING SETTLE ALGORITHM
Info: RANDOM NUMBER SEED     1744720899
Info: USE HYDROGEN BONDS?    NO
Info: Using AMBER format force field!
Info: AMBER PARM FILE        mobley_1662128.prmtop
Info: COORDINATE PDB         mobley_1662128.pdb
Info: Exclusions will be read from PARM file!
Info: SCNB (VDW SCALING)     2
Info: USING ARITHMETIC MEAN TO COMBINE L-J SIGMA PARAMETERS
Info: BINARY COORDINATES     mobley_1662128_min.coor
Info: SUMMARY OF PARAMETERS:
Info: 7 BONDS
Info: 8 ANGLES
Info: 7 DIHEDRAL
Info: 0 IMPROPER
Info: 0 CROSSTERM
Info: 0 VDW
Info: 21 VDW_PAIRS
Info: 0 NBTHOLE_PAIRS
Info: STRUCTURE SUMMARY:
Info: 2931 ATOMS
Info: 2930 BONDS
Info: 18 ANGLES
Info: 25 DIHEDRALS
Info: 0 IMPROPERS
Info: 0 CROSSTERMS
Info: 2967 EXCLUSIONS
Info: 12 FIXED ATOMS
Info: 2927 RIGID BONDS
Info: 8 RIGID BONDS BETWEEN FIXED ATOMS
Info: 5838 DEGREES OF FREEDOM
Info: 977 HYDROGEN GROUPS
Info: 4 ATOMS IN LARGEST HYDROGEN GROUP
Info: 977 MIGRATION GROUPS
Info: 4 ATOMS IN LARGEST MIGRATION GROUP
Info: 4 HYDROGEN GROUPS WITH ALL ATOMS FIXED
Info: TOTAL MASS = 17585.7 amu
Info: TOTAL CHARGE = 9.99942e-05 e
Info: MASS DENSITY = 0.67062 g/cm^3
Info: ATOM DENSITY = 0.0673092 atoms/A^3
Info: ADDED 0 IMPLICIT EXCLUSIONS
Info: NONBONDED TABLE R-SQUARED SPACING: 0.0625
Info: NONBONDED TABLE SIZE: 705 POINTS
Info: REMOVING COM VELOCITY -0.0600068 -0.108567 -0.0179387
TCL: Running for 100000 steps
ETITLE: TS BOND ANGLE DIHED IMPRP ELECT VDW BOUNDARY MISC KINETIC TOTAL TEMP POTENTIAL TOTAL3 TEMPAVG PRESSURE GPRESSURE VOLUME PRESSAVG GPRESSAVG
ENERGY: 0 0.0000 0.0000 0.0000 0.0000 -13534.8974 2376.7605 0.0000 0.0000 1730.2218 -9427.9151 298.2827 -11158.1369 -9427.6014 298.2827 366.9613 404.8014 43545.3322 366.9613 404.8014
ENERGY: 100000 0.0000 0.0000 0.0000 0.0000 -14267.3004 2521.3717 0.0000 0.0000 180.1826 -11565.7460 31.0627 -11745.9286 -11565.2923 30.9463 683.6390 714.2655 27785.3924 3.4555 3.5149
TCL: Running 100000 steps at 60 kelvin.
TCL: Setting parameter langevinTemp to 60
TCL: Running for 100000 steps
ETITLE: TS BOND ANGLE DIHED IMPRP ELECT VDW BOUNDARY MISC KINETIC TOTAL TEMP POTENTIAL TOTAL3 TEMPAVG PRESSURE GPRESSURE VOLUME PRESSAVG GPRESSAVG
ENERGY: 100000 0.0000 0.0000 0.0000 0.0000 -14267.3004 2521.3717 0.0000 0.0000 180.0945 -11565.8341 31.0475 -11745.9286 -11565.4670 31.0475 653.7134 714.0214 27785.3924 653.7134 714.0214
ENERGY: 200000 0.0000 0.0000 0.0000 0.0000 -14105.1559 2480.8096 0.0000 0.0000 353.1145 -11271.2318 60.8754 -11624.3463 -11270.2038 59.8978 847.7749 904.6276 27873.8589 3.0055 2.9329
TCL: Running 100000 steps at 90 kelvin.
TCL: Setting parameter langevinTemp to 90
TCL: Running for 100000 steps
ETITLE: TS BOND ANGLE DIHED IMPRP ELECT VDW BOUNDARY MISC KINETIC TOTAL TEMP POTENTIAL TOTAL3 TEMPAVG PRESSURE GPRESSURE VOLUME PRESSAVG GPRESSAVG
ENERGY: 200000 0.0000 0.0000 0.0000 0.0000 -14105.1559 2480.8096 0.0000 0.0000 352.9385 -11271.4078 60.8451 -11624.3463 -11270.9458 60.8451 855.6470 904.9943 27873.8589 855.6470 904.9943
ENERGY: 300000 0.0000 0.0000 0.0000 0.0000 -13813.9390 2278.8486 0.0000 0.0000 513.3552 -11021.7352 88.5002 -11535.0904 -11020.3505 89.7630 -740.1307 -700.2085 28393.7374 3.5383 3.5199
TCL: Running 100000 steps at 120 kelvin.
TCL: Setting parameter langevinTemp to 120
TCL: Running for 100000 steps
ETITLE: TS BOND ANGLE DIHED IMPRP ELECT VDW BOUNDARY MISC KINETIC TOTAL TEMP POTENTIAL TOTAL3 TEMPAVG PRESSURE GPRESSURE VOLUME PRESSAVG GPRESSAVG
ENERGY: 300000 0.0000 0.0000 0.0000 0.0000 -13813.9390 2278.8486 0.0000 0.0000 513.1010 -11021.9894 88.4564 -11535.0904 -11020.8897 88.4564 -764.9800 -700.1847 28393.7374 -764.9800 -700.1847
ENERGY: 400000 0.0000 0.0000 0.0000 0.0000 -13683.7814 2302.4916 0.0000 0.0000 690.8145 -10690.4753 119.0934 -11381.2898 -10689.2132 119.9100 -26.6297 31.3270 28495.7636 4.7778 4.8302
TCL: Running 100000 steps at 150 kelvin.
TCL: Setting parameter langevinTemp to 150
TCL: Running for 100000 steps
ETITLE: TS BOND ANGLE DIHED IMPRP ELECT VDW BOUNDARY MISC KINETIC TOTAL TEMP POTENTIAL TOTAL3 TEMPAVG PRESSURE GPRESSURE VOLUME PRESSAVG GPRESSAVG
ENERGY: 400000 0.0000 0.0000 0.0000 0.0000 -13683.7814 2302.4916 0.0000 0.0000 690.4743 -10690.8154 119.0348 -11381.2898 -10689.5916 119.0348 -30.7408 30.7014 28495.7636 -30.7408 30.7014
ENERGY: 500000 0.0000 0.0000 0.0000 0.0000 -13461.8289 2219.9506 0.0000 0.0000 862.9254 -10378.9529 148.7646 -11241.8783 -10376.3393 149.6788 -213.6890 -193.0200 28628.4168 4.0954 4.3240
TCL: Running 100000 steps at 180 kelvin.
TCL: Setting parameter langevinTemp to 180
TCL: Running for 100000 steps
ETITLE: TS BOND ANGLE DIHED IMPRP ELECT VDW BOUNDARY MISC KINETIC TOTAL TEMP POTENTIAL TOTAL3 TEMPAVG PRESSURE GPRESSURE VOLUME PRESSAVG GPRESSAVG
ENERGY: 500000 0.0000 0.0000 0.0000 0.0000 -13461.8289 2219.9506 0.0000 0.0000 862.5080 -10379.3703 148.6926 -11241.8783 -10377.3426 148.6926 -246.8030 -192.8843 28628.4168 -246.8030 -192.8843
ENERGY: 600000 0.0000 0.0000 0.0000 0.0000 -13102.9653 2192.7558 0.0000 0.0000 1054.8158 -9855.3937 181.8457 -10910.2095 -9851.4893 179.9168 971.5526 1032.2546 28281.7486 4.2818 4.0305
TCL: Running 100000 steps at 210 kelvin.
TCL: Setting parameter langevinTemp to 210
TCL: Running for 100000 steps
ETITLE: TS BOND ANGLE DIHED IMPRP ELECT VDW BOUNDARY MISC KINETIC TOTAL TEMP POTENTIAL TOTAL3 TEMPAVG PRESSURE GPRESSURE VOLUME PRESSAVG GPRESSAVG
ENERGY: 600000 0.0000 0.0000 0.0000 0.0000 -13102.9653 2192.7558 0.0000 0.0000 1054.3076 -9855.9019 181.7580 -10910.2095 -9854.0505 181.7580 968.3353 1034.6817 28281.7486 968.3353 1034.6817
ENERGY: 700000 0.0000 0.0000 0.0000 0.0000 -12291.2186 1823.8639 0.0000 0.0000 1181.6475 -9285.7072 203.7109 -10467.3547 -9282.5171 210.1162 -900.9311 -778.3668 28888.1968 4.1084 4.0914
TCL: Running 100000 steps at 240 kelvin.
TCL: Setting parameter langevinTemp to 240
TCL: Running for 100000 steps
ETITLE: TS BOND ANGLE DIHED IMPRP ELECT VDW BOUNDARY MISC KINETIC TOTAL TEMP POTENTIAL TOTAL3 TEMPAVG PRESSURE GPRESSURE VOLUME PRESSAVG GPRESSAVG
ENERGY: 700000 0.0000 0.0000 0.0000 0.0000 -12291.2186 1823.8639 0.0000 0.0000 1181.0392 -9286.3155 203.6060 -10467.3547 -9284.0876 203.6060 -839.8105 -778.4335 28888.1968 -839.8105 -778.4335
ENERGY: 800000 0.0000 0.0000 0.0000 0.0000 -11851.9965 1785.5182 0.0000 0.0000 1365.2361 -8701.2422 235.3608 -10066.4783 -8698.6061 240.1476 520.5213 599.2418 28809.9003 2.4290 2.6240
TCL: Running 100000 steps at 270 kelvin.
TCL: Setting parameter langevinTemp to 270
TCL: Running for 100000 steps
ETITLE: TS BOND ANGLE DIHED IMPRP ELECT VDW BOUNDARY MISC KINETIC TOTAL TEMP POTENTIAL TOTAL3 TEMPAVG PRESSURE GPRESSURE VOLUME PRESSAVG GPRESSAVG
ENERGY: 800000 0.0000 0.0000 0.0000 0.0000 -11851.9965 1785.5182 0.0000 0.0000 1364.5531 -8701.9252 235.2430 -10066.4783 -8699.7641 235.2430 511.5614 598.1234 28809.9003 511.5614 598.1234
ENERGY: 900000 0.0000 0.0000 0.0000 0.0000 -11115.7773 1568.4016 0.0000 0.0000 1576.8804 -7970.4953 271.8473 -9547.3757 -7967.4695 270.2256 178.8427 247.5056 29461.5312 2.8504 2.8182
TCL: Running 1000000 steps at 300 kelvin.
TCL: Setting parameter langevinTemp to 300
TCL: Running for 1000000 steps
ETITLE: TS BOND ANGLE DIHED IMPRP ELECT VDW BOUNDARY MISC KINETIC TOTAL TEMP POTENTIAL TOTAL3 TEMPAVG PRESSURE GPRESSURE VOLUME PRESSAVG GPRESSAVG
ENERGY: 900000 0.0000 0.0000 0.0000 0.0000 -11115.7773 1568.4016 0.0000 0.0000 1576.1025 -7971.2732 271.7132 -9547.3757 -7969.2835 271.7132 158.6608 248.1769 29461.5312 158.6608 248.1769
ENERGY: 1100000 0.0000 0.0000 0.0000 0.0000 -10635.7269 1412.1484 0.0000 0.0000 1783.9268 -7439.6518 307.5412 -9223.5786 -7438.5210 300.5490 -109.2496 2.5977 30095.2186 4.2959 4.1137
ENERGY: 1300000 0.0000 0.0000 0.0000 0.0000 -10477.2943 1342.6760 0.0000 0.0000 1753.6542 -7380.9640 302.3224 -9134.6183 -7375.7688 299.5079 -497.3531 -452.5368 30405.9304 4.0027 3.9935
ENERGY: 1500000 0.0000 0.0000 0.0000 0.0000 -10506.2419 1342.6729 0.0000 0.0000 1722.6199 -7440.9491 296.9722 -9163.5690 -7439.7270 300.4696 -652.2583 -588.8880 30373.3220 4.1716 3.9418
ENERGY: 1700000 0.0000 0.0000 0.0000 0.0000 -10688.2920 1471.1343 0.0000 0.0000 1784.1141 -7433.0436 307.5735 -9217.1577 -7431.3109 300.8056 364.6914 435.4713 29977.4433 1.6195 1.6963
ENERGY: 1900000 0.0000 0.0000 0.0000 0.0000 -10618.2549 1424.2690 0.0000 0.0000 1756.2698 -7437.7161 302.7733 -9193.9859 -7433.1965 300.1356 -100.0277 -40.7792 30391.3972 3.5382 3.5929
TCL: Exiting due to exit command.
