Info: SIMULATION PARAMETERS:
Info: TIMESTEP               2
Info: NUMBER OF STEPS        0
Info: STEPS PER CYCLE        10
Info: PERIODIC CELL BASIS 1  35.89 0 0
Info: PERIODIC CELL BASIS 2  0 34.696 0
Info: PERIODIC CELL BASIS 3  0 0 35.723
Info: PERIODIC CELL CENTER   0 0 0
Info: WRAPPING WATERS AROUND PERIODIC BOUNDARIES ON OUTPUT.
Info: WRAPPING ALL CLUSTERS AROUND PERIODIC BOUNDARIES ON OUTPUT.
Info: FIRST LDB TIMESTEP     50
Info: LAST LDB TIMESTEP     -1
Info: HOM BACKGROUND SCALING 1
Info: PME BACKGROUND SCALING 1
Info: MIN ATOMS PER PATCH    40
Info: EMPTY PATCH LOAD       40 ATOMS
Info: INITIAL TEMPERATURE    300
Info: CENTER OF MASS MOVING INITIALLY? NO
Info: DIELECTRIC             1
Info: EXCLUDE                SCALED ONE-FOUR
Info: 1-4 ELECTROSTATICS SCALED BY 0.833333
Info: MODIFIED 1-4 VDW PARAMETERS WILL BE USED
Info: DCD FILENAME           mobley_1261349_equil.dcd
Info: DCD FREQUENCY          100000
Info: DCD FIRST STEP         100000
Info: DCD FILE WILL CONTAIN UNIT CELL DATA
Info: XST FILENAME           mobley_1261349_equil.xst
Info: XST FREQUENCY          100000
Info: NO VELOCITY DCD OUTPUT
Info: NO FORCE DCD OUTPUT
Info: OUTPUT FILENAME        mobley_1261349_equil
Info: BINARY OUTPUT FILES WILL BE USED
Info: RESTART FILENAME       mobley_1261349_equil.restart
Info: RESTART FREQUENCY      100000
Info: BINARY RESTART FILES WILL BE USED
Info: CUTOFF                 9
Info: PAIRLIST DISTANCE      11
Info: PAIRLIST SHRINK RATE   0.01
Info: PAIRLIST GROW RATE     0.01
Info: PAIRLIST TRIGGER       0.3
Info: PAIRLISTS PER CYCLE    2
Info: PAIRLISTS ENABLED
Info: MARGIN                 8
Info: HYDROGEN GROUP CUTOFF  2.5
Info: PATCH DIMENSION        21.5
Info: ENERGY OUTPUT STEPS    100000
Info: ENERGY EVALUATION STEPS    100000
Info: OUTPUT ENERGY PRECISION 4
Info: CROSSTERM ENERGY INCLUDED IN DIHEDRAL
Info: TIMING OUTPUT STEPS    1000000
Info: PRESSURE OUTPUT STEPS  100000
Info: FIXED ATOMS ACTIVE
Info: LANGEVIN DYNAMICS ACTIVE
Info: LANGEVIN TEMPERATURE   30
Info: LANGEVIN USING BBK INTEGRATOR
Info: LANGEVIN DAMPING COEFFICIENT IS 1 INVERSE PS
Info: LANGEVIN DYNAMICS APPLIED TO HYDROGENS
Info: LANGEVIN PISTON PRESSURE CONTROL ACTIVE
Info:        TARGET PRESSURE IS 1.01325 BAR
Info:     OSCILLATION PERIOD IS 50 FS
Info:             DECAY TIME IS 25 FS
Info:     PISTON TEMPERATURE IS 300 K
Info:       PRESSURE CONTROL IS GROUP-BASED
Info:    INITIAL STRAIN RATE IS 0 0 0
Info:       CELL FLUCTUATION IS ISOTROPIC
Info: PARTICLE MESH EWALD (PME) ACTIVE
Info: PME TOLERANCE               1e-06
Info: PME EWALD COEFFICIENT       0.348832
Info: PME INTERPOLATION ORDER     4
Info: PME GRID DIMENSIONS         36 36 36
Info: PME MAXIMUM GRID SPACING    1
Info: FULL ELECTROSTATIC EVALUATION FREQUENCY      2
Info: USING VERLET I (r-RESPA) MTS SCHEME.
Info: C1 SPLITTING OF LONG RANGE ELECTROSTATICS
Info: PLACING ATOMS IN PATCHES BY HYDROGEN GROUPS
Info: RIGID BONDS TO HYDROGEN : ALL
Info:         ERROR TOLERANCE : 1e-08
Info:          MAX ITERATIONS : 100
Info: RIGID WATER USING SETTLE ALGORITHM
Info: RANDOM NUMBER SEED     1744676480
Info: USE HYDROGEN BONDS?    NO
Info: Using AMBER format force field!
Info: AMBER PARM FILE        mobley_1261349.prmtop
Info: COORDINATE PDB         mobley_1261349.pdb
Info: Exclusions will be read from PARM file!
Info: SCNB (VDW SCALING)     2
Info: USING ARITHMETIC MEAN TO COMBINE L-J SIGMA PARAMETERS
Info: BINARY COORDINATES     mobley_1261349_min.coor
Info: SUMMARY OF PARAMETERS:
Info: 4 BONDS
Info: 3 ANGLES
Info:   3 HARMONIC
Info:   0 COSINE-BASED
Info: 1 DIHEDRAL
Info: 0 IMPROPER
Info: 0 CROSSTERM
Info: 0 VDW
Info: 10 VDW_PAIRS
Info: 0 NBTHOLE_PAIRS
Info: STRUCTURE SUMMARY:
Info: 2978 ATOMS
Info: 2977 BONDS
Info: 30 ANGLES
Info: 36 DIHEDRALS
Info: 0 IMPROPERS
Info: 0 CROSSTERMS
Info: 3043 EXCLUSIONS
Info: 17 FIXED ATOMS
Info: 2973 RIGID BONDS
Info: 12 RIGID BONDS BETWEEN FIXED ATOMS
Info: 5922 DEGREES OF FREEDOM
Info: 992 HYDROGEN GROUPS
Info: 4 ATOMS IN LARGEST HYDROGEN GROUP
Info: 992 MIGRATION GROUPS
Info: 4 ATOMS IN LARGEST MIGRATION GROUP
Info: 5 HYDROGEN GROUPS WITH ALL ATOMS FIXED
Info: TOTAL MASS = 17853.9 amu
Info: TOTAL CHARGE = 0.000400018 e
Info: MASS DENSITY = 0.666488 g/cm^3
Info: ATOM DENSITY = 0.0669459 atoms/A^3
Info: ADDED 0 IMPLICIT EXCLUSIONS
Info: NONBONDED TABLE R-SQUARED SPACING: 0.0625
Info: NONBONDED TABLE SIZE: 705 POINTS
Info: REMOVING COM VELOCITY 0.180348 0.110224 0.0107143
TCL: Running for 100000 steps
ETITLE: TS BOND ANGLE DIHED IMPRP ELECT VDW BOUNDARY MISC KINETIC TOTAL TEMP POTENTIAL TOTAL3 TEMPAVG PRESSURE GPRESSURE VOLUME PRESSAVG GPRESSAVG
ENERGY: 0 0.0000 0.0000 0.0000 0.0000 -13735.4220 2426.3819 0.0000 0.0000 1764.6523 -9544.3878 299.9032 -11309.0401 -9544.0604 299.9032 596.7195 634.5884 44483.6885 596.7195 634.5884
ENERGY: 100000 0.0000 0.0000 0.0000 0.0000 -14367.1041 2520.2447 0.0000 0.0000 175.5371 -11671.3223 29.8326 -11846.8594 -11670.8900 30.8957 209.0370 271.6252 28952.2761 4.5663 4.5447
TCL: Running 100000 steps at 60 kelvin.
TCL: Setting parameter langevinTemp to 60
TCL: Running for 100000 steps
ETITLE: TS BOND ANGLE DIHED IMPRP ELECT VDW BOUNDARY MISC KINETIC TOTAL TEMP POTENTIAL TOTAL3 TEMPAVG PRESSURE GPRESSURE VOLUME PRESSAVG GPRESSAVG
ENERGY: 100000 0.0000 0.0000 0.0000 0.0000 -14367.1041 2520.2447 0.0000 0.0000 175.4531 -11671.4063 29.8183 -11846.8594 -11670.9623 29.8183 215.5805 271.7299 28952.2761 215.5805 271.7299
ENERGY: 200000 0.0000 0.0000 0.0000 0.0000 -14182.5298 2396.4933 0.0000 0.0000 352.6246 -11433.4119 59.9287 -11786.0365 -11431.8684 59.8088 -577.4977 -490.4496 29021.4214 4.8531 4.8905
TCL: Running 100000 steps at 90 kelvin.
TCL: Setting parameter langevinTemp to 90
TCL: Running for 100000 steps
ETITLE: TS BOND ANGLE DIHED IMPRP ELECT VDW BOUNDARY MISC KINETIC TOTAL TEMP POTENTIAL TOTAL3 TEMPAVG PRESSURE GPRESSURE VOLUME PRESSAVG GPRESSAVG
ENERGY: 200000 0.0000 0.0000 0.0000 0.0000 -14182.5298 2396.4933 0.0000 0.0000 352.4430 -11433.5934 59.8978 -11786.0365 -11432.7572 59.8978 -561.8247 -490.2125 29021.4214 -561.8247 -490.2125
ENERGY: 300000 0.0000 0.0000 0.0000 0.0000 -14238.2697 2545.3910 0.0000 0.0000 533.2672 -11159.6115 90.6289 -11692.8787 -11158.7498 89.9040 1224.7959 1266.5685 28686.2697 4.9320 4.9945
TCL: Running 100000 steps at 120 kelvin.
TCL: Setting parameter langevinTemp to 120
TCL: Running for 100000 steps
ETITLE: TS BOND ANGLE DIHED IMPRP ELECT VDW BOUNDARY MISC KINETIC TOTAL TEMP POTENTIAL TOTAL3 TEMPAVG PRESSURE GPRESSURE VOLUME PRESSAVG GPRESSAVG
ENERGY: 300000 0.0000 0.0000 0.0000 0.0000 -14238.2697 2545.3910 0.0000 0.0000 533.0003 -11159.8784 90.5836 -11692.8787 -11159.1888 90.5836 1205.0683 1266.3593 28686.2697 1205.0683 1266.3593
ENERGY: 400000 0.0000 0.0000 0.0000 0.0000 -13697.1347 2174.3683 0.0000 0.0000 716.9623 -10805.8040 121.8480 -11522.7663 -10803.7794 119.9606 -1412.8571 -1338.3319 29255.2538 4.3947 4.3669
TCL: Running 100000 steps at 150 kelvin.
TCL: Setting parameter langevinTemp to 150
TCL: Running for 100000 steps
ETITLE: TS BOND ANGLE DIHED IMPRP ELECT VDW BOUNDARY MISC KINETIC TOTAL TEMP POTENTIAL TOTAL3 TEMPAVG PRESSURE GPRESSURE VOLUME PRESSAVG GPRESSAVG
ENERGY: 400000 0.0000 0.0000 0.0000 0.0000 -13697.1347 2174.3683 0.0000 0.0000 716.6162 -10806.1502 121.7891 -11522.7663 -10804.8818 121.7891 -1391.2965 -1338.2368 29255.2538 -1391.2965 -1338.2368
ENERGY: 500000 0.0000 0.0000 0.0000 0.0000 -13707.2697 2313.3638 0.0000 0.0000 895.6082 -10498.2978 152.2089 -11393.9059 -10495.5772 149.8233 33.4181 114.1910 29345.0703 4.5117 4.3570
TCL: Running 100000 steps at 180 kelvin.
TCL: Setting parameter langevinTemp to 180
TCL: Running for 100000 steps
ETITLE: TS BOND ANGLE DIHED IMPRP ELECT VDW BOUNDARY MISC KINETIC TOTAL TEMP POTENTIAL TOTAL3 TEMPAVG PRESSURE GPRESSURE VOLUME PRESSAVG GPRESSAVG
ENERGY: 500000 0.0000 0.0000 0.0000 0.0000 -13707.2697 2313.3638 0.0000 0.0000 895.1802 -10498.7257 152.1362 -11393.9059 -10496.9054 152.1362 60.6161 114.9114 29345.0703 60.6161 114.9114
ENERGY: 600000 0.0000 0.0000 0.0000 0.0000 -13165.7959 2058.6042 0.0000 0.0000 1074.0651 -10033.1266 182.5377 -11107.1917 -10030.0931 179.9921 -813.2316 -743.2762 29263.3620 3.1216 3.0403
TCL: Running 100000 steps at 210 kelvin.
TCL: Setting parameter langevinTemp to 210
TCL: Running for 100000 steps
ETITLE: TS BOND ANGLE DIHED IMPRP ELECT VDW BOUNDARY MISC KINETIC TOTAL TEMP POTENTIAL TOTAL3 TEMPAVG PRESSURE GPRESSURE VOLUME PRESSAVG GPRESSAVG
ENERGY: 600000 0.0000 0.0000 0.0000 0.0000 -13165.7959 2058.6042 0.0000 0.0000 1073.5574 -10033.6343 182.4514 -11107.1917 -10031.6104 182.4514 -813.2476 -742.1563 29263.3620 -813.2476 -742.1563
ENERGY: 700000 0.0000 0.0000 0.0000 0.0000 -12349.4945 1789.6248 0.0000 0.0000 1208.8950 -9350.9747 205.4521 -10559.8697 -9348.5892 209.9184 -990.8659 -914.6779 29325.0033 5.2138 5.0513
TCL: Running 100000 steps at 240 kelvin.
TCL: Setting parameter langevinTemp to 240
TCL: Running for 100000 steps
ETITLE: TS BOND ANGLE DIHED IMPRP ELECT VDW BOUNDARY MISC KINETIC TOTAL TEMP POTENTIAL TOTAL3 TEMPAVG PRESSURE GPRESSURE VOLUME PRESSAVG GPRESSAVG
ENERGY: 700000 0.0000 0.0000 0.0000 0.0000 -12349.4945 1789.6248 0.0000 0.0000 1208.2551 -9351.6146 205.3433 -10559.8697 -9349.0981 205.3433 -997.6894 -915.1716 29325.0033 -997.6894 -915.1716
ENERGY: 800000 0.0000 0.0000 0.0000 0.0000 -12038.0350 1792.1406 0.0000 0.0000 1448.0572 -8797.8372 246.0978 -10245.8944 -8793.4693 239.9138 475.7398 620.8901 28836.0929 3.1319 3.1262
TCL: Running 100000 steps at 270 kelvin.
TCL: Setting parameter langevinTemp to 270
TCL: Running for 100000 steps
ETITLE: TS BOND ANGLE DIHED IMPRP ELECT VDW BOUNDARY MISC KINETIC TOTAL TEMP POTENTIAL TOTAL3 TEMPAVG PRESSURE GPRESSURE VOLUME PRESSAVG GPRESSAVG
ENERGY: 800000 0.0000 0.0000 0.0000 0.0000 -12038.0350 1792.1406 0.0000 0.0000 1447.3547 -8798.5397 245.9784 -10245.8944 -8796.6434 245.9784 542.5595 620.8917 28836.0929 542.5595 620.8917
ENERGY: 900000 0.0000 0.0000 0.0000 0.0000 -11253.4289 1521.8361 0.0000 0.0000 1592.2041 -8139.3887 270.5956 -9731.5928 -8136.8784 269.9837 -563.5175 -511.3174 30197.9675 3.1651 3.1025
TCL: Running 1000000 steps at 300 kelvin.
TCL: Setting parameter langevinTemp to 300
TCL: Running for 1000000 steps
ETITLE: TS BOND ANGLE DIHED IMPRP ELECT VDW BOUNDARY MISC KINETIC TOTAL TEMP POTENTIAL TOTAL3 TEMPAVG PRESSURE GPRESSURE VOLUME PRESSAVG GPRESSAVG
ENERGY: 900000 0.0000 0.0000 0.0000 0.0000 -11253.4289 1521.8361 0.0000 0.0000 1591.3880 -8140.2048 270.4569 -9731.5928 -8137.7604 270.4569 -590.7086 -511.4298 30197.9675 -590.7086 -511.4298
ENERGY: 1100000 0.0000 0.0000 0.0000 0.0000 -10858.6612 1486.5163 0.0000 0.0000 1726.2365 -7645.9083 293.3744 -9372.1448 -7641.4138 300.6438 171.6528 215.1243 30433.8027 3.3129 3.2371
ENERGY: 1300000 0.0000 0.0000 0.0000 0.0000 -10821.3839 1491.5571 0.0000 0.0000 1699.0394 -7630.7874 288.7523 -9329.8268 -7626.5134 300.6318 114.9024 207.4716 30789.7072 3.3604 3.2084
ENERGY: 1500000 0.0000 0.0000 0.0000 0.0000 -10628.7227 1364.2296 0.0000 0.0000 1714.6892 -7549.8039 291.4120 -9264.4931 -7545.5945 299.5967 -762.5774 -644.2596 31241.3843 2.9422 2.7941
ENERGY: 1700000 0.0000 0.0000 0.0000 0.0000 -10905.7299 1500.3123 0.0000 0.0000 1773.1070 -7632.3106 301.3401 -9405.4176 -7629.7453 300.6046 65.0093 129.2389 30869.5537 2.5384 2.7994
ENERGY: 1900000 0.0000 0.0000 0.0000 0.0000 -11025.4431 1582.0949 0.0000 0.0000 1820.2597 -7623.0885 309.3537 -9443.3482 -7619.6974 300.6499 793.7641 864.0037 30574.2512 3.5908 3.7509
TCL: Exiting due to exit command.
