Info: SIMULATION PARAMETERS:
Info: TIMESTEP               2
Info: NUMBER OF STEPS        0
Info: STEPS PER CYCLE        10
Info: PERIODIC CELL BASIS 1  37.38 0 0
Info: PERIODIC CELL BASIS 2  0 36.611 0
Info: PERIODIC CELL BASIS 3  0 0 32.993
Info: PERIODIC CELL CENTER   0 0 0
Info: WRAPPING WATERS AROUND PERIODIC BOUNDARIES ON OUTPUT.
Info: WRAPPING ALL CLUSTERS AROUND PERIODIC BOUNDARIES ON OUTPUT.
Info: FIRST LDB TIMESTEP     50
Info: LAST LDB TIMESTEP     -1
Info: HOM BACKGROUND SCALING 1
Info: PME BACKGROUND SCALING 1
Info: MIN ATOMS PER PATCH    40
Info: EMPTY PATCH LOAD       40 ATOMS
Info: INITIAL TEMPERATURE    300
Info: CENTER OF MASS MOVING INITIALLY? NO
Info: DIELECTRIC             1
Info: EXCLUDE                SCALED ONE-FOUR
Info: 1-4 ELECTROSTATICS SCALED BY 0.833333
Info: MODIFIED 1-4 VDW PARAMETERS WILL BE USED
Info: DCD FILENAME           mobley_1396156_equil.dcd
Info: DCD FREQUENCY          100000
Info: DCD FIRST STEP         100000
Info: DCD FILE WILL CONTAIN UNIT CELL DATA
Info: XST FILENAME           mobley_1396156_equil.xst
Info: XST FREQUENCY          100000
Info: NO VELOCITY DCD OUTPUT
Info: NO FORCE DCD OUTPUT
Info: OUTPUT FILENAME        mobley_1396156_equil
Info: BINARY OUTPUT FILES WILL BE USED
Info: RESTART FILENAME       mobley_1396156_equil.restart
Info: RESTART FREQUENCY      100000
Info: BINARY RESTART FILES WILL BE USED
Info: CUTOFF                 9
Info: PAIRLIST DISTANCE      11
Info: PAIRLIST SHRINK RATE   0.01
Info: PAIRLIST GROW RATE     0.01
Info: PAIRLIST TRIGGER       0.3
Info: PAIRLISTS PER CYCLE    2
Info: PAIRLISTS ENABLED
Info: MARGIN                 8
Info: HYDROGEN GROUP CUTOFF  2.5
Info: PATCH DIMENSION        21.5
Info: ENERGY OUTPUT STEPS    100000
Info: ENERGY EVALUATION STEPS    100000
Info: OUTPUT ENERGY PRECISION 4
Info: CROSSTERM ENERGY INCLUDED IN DIHEDRAL
Info: TIMING OUTPUT STEPS    1000000
Info: PRESSURE OUTPUT STEPS  100000
Info: FIXED ATOMS ACTIVE
Info: LANGEVIN DYNAMICS ACTIVE
Info: LANGEVIN TEMPERATURE   30
Info: LANGEVIN USING BBK INTEGRATOR
Info: LANGEVIN DAMPING COEFFICIENT IS 1 INVERSE PS
Info: LANGEVIN DYNAMICS APPLIED TO HYDROGENS
Info: LANGEVIN PISTON PRESSURE CONTROL ACTIVE
Info:        TARGET PRESSURE IS 1.01325 BAR
Info:     OSCILLATION PERIOD IS 50 FS
Info:             DECAY TIME IS 25 FS
Info:     PISTON TEMPERATURE IS 300 K
Info:       PRESSURE CONTROL IS GROUP-BASED
Info:    INITIAL STRAIN RATE IS 0 0 0
Info:       CELL FLUCTUATION IS ISOTROPIC
Info: PARTICLE MESH EWALD (PME) ACTIVE
Info: PME TOLERANCE               1e-06
Info: PME EWALD COEFFICIENT       0.348832
Info: PME INTERPOLATION ORDER     4
Info: PME GRID DIMENSIONS         40 40 36
Info: PME MAXIMUM GRID SPACING    1
Info: FULL ELECTROSTATIC EVALUATION FREQUENCY      2
Info: USING VERLET I (r-RESPA) MTS SCHEME.
Info: C1 SPLITTING OF LONG RANGE ELECTROSTATICS
Info: PLACING ATOMS IN PATCHES BY HYDROGEN GROUPS
Info: RIGID BONDS TO HYDROGEN : ALL
Info:         ERROR TOLERANCE : 1e-08
Info:          MAX ITERATIONS : 100
Info: RIGID WATER USING SETTLE ALGORITHM
Info: RANDOM NUMBER SEED     1743901036
Info: USE HYDROGEN BONDS?    NO
Info: Using AMBER format force field!
Info: AMBER PARM FILE        mobley_1396156.prmtop
Info: COORDINATE PDB         mobley_1396156.pdb
Info: Exclusions will be read from PARM file!
Info: SCNB (VDW SCALING)     2
Info: USING ARITHMETIC MEAN TO COMBINE L-J SIGMA PARAMETERS
Info: BINARY COORDINATES     mobley_1396156_min.coor
Info: SUMMARY OF PARAMETERS:
Info: 6 BONDS
Info: 5 ANGLES
Info:   5 HARMONIC
Info:   0 COSINE-BASED
Info: 3 DIHEDRAL
Info: 0 IMPROPER
Info: 0 CROSSTERM
Info: 0 VDW
Info: 21 VDW_PAIRS
Info: 0 NBTHOLE_PAIRS
Info: STRUCTURE SUMMARY:
Info: 2939 ATOMS
Info: 2939 BONDS
Info: 21 ANGLES
Info: 34 DIHEDRALS
Info: 0 IMPROPERS
Info: 0 CROSSTERMS
Info: 2985 EXCLUSIONS
Info: 14 FIXED ATOMS
Info: 2925 RIGID BONDS
Info: 0 RIGID BONDS BETWEEN FIXED ATOMS
Info: 5850 DEGREES OF FREEDOM
Info: 989 HYDROGEN GROUPS
Info: 3 ATOMS IN LARGEST HYDROGEN GROUP
Info: 989 MIGRATION GROUPS
Info: 3 ATOMS IN LARGEST MIGRATION GROUP
Info: 14 HYDROGEN GROUPS WITH ALL ATOMS FIXED
Info: TOTAL MASS = 17860.9 amu
Info: TOTAL CHARGE = 0.000200011 e
Info: MASS DENSITY = 0.656887 g/cm^3
Info: ATOM DENSITY = 0.0650919 atoms/A^3
Info: ADDED 0 IMPLICIT EXCLUSIONS
Info: NONBONDED TABLE R-SQUARED SPACING: 0.0625
Info: NONBONDED TABLE SIZE: 705 POINTS
Info: REMOVING COM VELOCITY 0.19207 -0.0312562 0.0794387
TCL: Running for 100000 steps
ETITLE: TS BOND ANGLE DIHED IMPRP ELECT VDW BOUNDARY MISC KINETIC TOTAL TEMP POTENTIAL TOTAL3 TEMPAVG PRESSURE GPRESSURE VOLUME PRESSAVG GPRESSAVG
ENERGY: 0 0.0000 0.0000 0.0000 0.0000 -13551.7176 2362.9824 0.0000 0.0000 1736.2717 -9452.4635 298.7117 -11188.7352 -9452.1545 298.7117 227.1994 268.7290 45151.5533 227.1994 268.7290
ENERGY: 100000 0.0000 0.0000 0.0000 0.0000 -14130.5966 2381.0180 0.0000 0.0000 181.2767 -11568.3018 31.1872 -11749.5785 -11567.7620 30.8442 -874.9962 -802.9025 28962.4959 4.0483 4.0928
TCL: Running 100000 steps at 60 kelvin.
TCL: Setting parameter langevinTemp to 60
TCL: Running for 100000 steps
ETITLE: TS BOND ANGLE DIHED IMPRP ELECT VDW BOUNDARY MISC KINETIC TOTAL TEMP POTENTIAL TOTAL3 TEMPAVG PRESSURE GPRESSURE VOLUME PRESSAVG GPRESSAVG
ENERGY: 100000 0.0000 0.0000 0.0000 0.0000 -14130.5966 2381.0180 0.0000 0.0000 181.1871 -11568.3914 31.1718 -11749.5785 -11567.9977 31.1718 -870.3338 -802.8825 28962.4959 -870.3338 -802.8825
ENERGY: 200000 0.0000 0.0000 0.0000 0.0000 -14060.1684 2371.3238 0.0000 0.0000 344.2607 -11344.5839 59.2273 -11688.8446 -11343.1181 60.0820 -746.9865 -693.0929 28973.6191 4.6520 4.6144
TCL: Running 100000 steps at 90 kelvin.
TCL: Setting parameter langevinTemp to 90
TCL: Running for 100000 steps
ETITLE: TS BOND ANGLE DIHED IMPRP ELECT VDW BOUNDARY MISC KINETIC TOTAL TEMP POTENTIAL TOTAL3 TEMPAVG PRESSURE GPRESSURE VOLUME PRESSAVG GPRESSAVG
ENERGY: 200000 0.0000 0.0000 0.0000 0.0000 -14060.1684 2371.3238 0.0000 0.0000 344.0863 -11344.7583 59.1973 -11688.8446 -11344.0595 59.1973 -738.9548 -693.0831 28973.6191 -738.9548 -693.0831
ENERGY: 300000 0.0000 0.0000 0.0000 0.0000 -13892.0786 2345.6414 0.0000 0.0000 509.1129 -11037.3243 87.5888 -11546.4371 -11035.8733 89.9152 -519.2933 -476.5967 29184.3478 5.2032 5.1276
TCL: Running 100000 steps at 120 kelvin.
TCL: Setting parameter langevinTemp to 120
TCL: Running for 100000 steps
ETITLE: TS BOND ANGLE DIHED IMPRP ELECT VDW BOUNDARY MISC KINETIC TOTAL TEMP POTENTIAL TOTAL3 TEMPAVG PRESSURE GPRESSURE VOLUME PRESSAVG GPRESSAVG
ENERGY: 300000 0.0000 0.0000 0.0000 0.0000 -13892.0786 2345.6414 0.0000 0.0000 508.8588 -11037.5784 87.5451 -11546.4371 -11036.3782 87.5451 -537.7609 -476.9503 29184.3478 -537.7609 -476.9503
ENERGY: 400000 0.0000 0.0000 0.0000 0.0000 -13731.8436 2306.1380 0.0000 0.0000 714.5058 -10711.1997 122.9250 -11425.7055 -10709.4602 120.0804 -56.1561 -15.1386 28865.4434 4.7060 4.8069
TCL: Running 100000 steps at 150 kelvin.
TCL: Setting parameter langevinTemp to 150
TCL: Running for 100000 steps
ETITLE: TS BOND ANGLE DIHED IMPRP ELECT VDW BOUNDARY MISC KINETIC TOTAL TEMP POTENTIAL TOTAL3 TEMPAVG PRESSURE GPRESSURE VOLUME PRESSAVG GPRESSAVG
ENERGY: 400000 0.0000 0.0000 0.0000 0.0000 -13731.8436 2306.1380 0.0000 0.0000 714.1594 -10711.5462 122.8654 -11425.7055 -10710.2454 122.8654 -57.5183 -14.5072 28865.4434 -57.5183 -14.5072
ENERGY: 500000 0.0000 0.0000 0.0000 0.0000 -13444.7435 2232.5838 0.0000 0.0000 867.1047 -10345.0551 149.1784 -11212.1597 -10343.5379 149.8694 6.1089 58.3785 29114.6828 3.4768 3.4950
TCL: Running 100000 steps at 180 kelvin.
TCL: Setting parameter langevinTemp to 180
TCL: Running for 100000 steps
ETITLE: TS BOND ANGLE DIHED IMPRP ELECT VDW BOUNDARY MISC KINETIC TOTAL TEMP POTENTIAL TOTAL3 TEMPAVG PRESSURE GPRESSURE VOLUME PRESSAVG GPRESSAVG
ENERGY: 500000 0.0000 0.0000 0.0000 0.0000 -13444.7435 2232.5838 0.0000 0.0000 866.6729 -10345.4869 149.1041 -11212.1597 -10343.8562 149.1041 4.1342 57.9011 29114.6828 4.1342 57.9011
ENERGY: 600000 0.0000 0.0000 0.0000 0.0000 -13096.0534 2139.8788 0.0000 0.0000 1052.3590 -9903.8157 181.0500 -10956.1747 -9901.7199 180.2617 356.2293 421.7742 28712.3866 4.7403 4.7484
TCL: Running 100000 steps at 210 kelvin.
TCL: Setting parameter langevinTemp to 210
TCL: Running for 100000 steps
ETITLE: TS BOND ANGLE DIHED IMPRP ELECT VDW BOUNDARY MISC KINETIC TOTAL TEMP POTENTIAL TOTAL3 TEMPAVG PRESSURE GPRESSURE VOLUME PRESSAVG GPRESSAVG
ENERGY: 600000 0.0000 0.0000 0.0000 0.0000 -13096.0534 2139.8788 0.0000 0.0000 1051.8300 -9904.3447 180.9590 -10956.1747 -9902.2858 180.9590 358.3070 421.0499 28712.3866 358.3070 421.0499
ENERGY: 700000 0.0000 0.0000 0.0000 0.0000 -12274.8163 1905.6388 0.0000 0.0000 1287.9277 -9081.2499 221.5777 -10369.1776 -9078.5539 209.9663 987.2680 1020.4516 28372.5800 4.5872 4.3730
TCL: Running 100000 steps at 240 kelvin.
TCL: Setting parameter langevinTemp to 240
TCL: Running for 100000 steps
ETITLE: TS BOND ANGLE DIHED IMPRP ELECT VDW BOUNDARY MISC KINETIC TOTAL TEMP POTENTIAL TOTAL3 TEMPAVG PRESSURE GPRESSURE VOLUME PRESSAVG GPRESSAVG
ENERGY: 700000 0.0000 0.0000 0.0000 0.0000 -12274.8163 1905.6388 0.0000 0.0000 1287.3248 -9081.8528 221.4740 -10369.1776 -9080.5192 221.4740 948.5354 1019.7632 28372.5800 948.5354 1019.7632
ENERGY: 800000 0.0000 0.0000 0.0000 0.0000 -11840.0768 1699.8410 0.0000 0.0000 1380.9472 -8759.2886 237.5809 -10140.2358 -8757.0811 239.9556 -220.0643 -137.5104 28941.0381 3.4698 3.5063
TCL: Running 100000 steps at 270 kelvin.
TCL: Setting parameter langevinTemp to 270
TCL: Running for 100000 steps
ETITLE: TS BOND ANGLE DIHED IMPRP ELECT VDW BOUNDARY MISC KINETIC TOTAL TEMP POTENTIAL TOTAL3 TEMPAVG PRESSURE GPRESSURE VOLUME PRESSAVG GPRESSAVG
ENERGY: 800000 0.0000 0.0000 0.0000 0.0000 -11840.0768 1699.8410 0.0000 0.0000 1380.2452 -8759.9906 237.4602 -10140.2358 -8756.8173 237.4602 -228.2867 -137.9480 28941.0381 -228.2867 -137.9480
ENERGY: 900000 0.0000 0.0000 0.0000 0.0000 -11210.0880 1528.3505 0.0000 0.0000 1607.2882 -8074.4493 276.5211 -9681.7375 -8072.1929 270.3264 -560.0974 -409.2982 29925.7312 5.1040 4.8481
TCL: Running 1000000 steps at 300 kelvin.
TCL: Setting parameter langevinTemp to 300
TCL: Running for 1000000 steps
ETITLE: TS BOND ANGLE DIHED IMPRP ELECT VDW BOUNDARY MISC KINETIC TOTAL TEMP POTENTIAL TOTAL3 TEMPAVG PRESSURE GPRESSURE VOLUME PRESSAVG GPRESSAVG
ENERGY: 900000 0.0000 0.0000 0.0000 0.0000 -11210.0880 1528.3505 0.0000 0.0000 1606.5045 -8075.2331 276.3863 -9681.7375 -8073.0871 276.3863 -497.0897 -409.8093 29925.7312 -497.0897 -409.8093
ENERGY: 1100000 0.0000 0.0000 0.0000 0.0000 -10780.6344 1465.8726 0.0000 0.0000 1776.1647 -7538.5972 305.5749 -9314.7619 -7535.5495 300.4483 249.1052 363.5023 30089.4659 3.3394 3.4218
ENERGY: 1300000 0.0000 0.0000 0.0000 0.0000 -10710.3782 1469.2464 0.0000 0.0000 1713.4573 -7527.6745 294.7866 -9241.1318 -7524.4381 299.7636 290.2856 327.2632 30630.4589 1.9719 2.0621
ENERGY: 1500000 0.0000 0.0000 0.0000 0.0000 -10576.7442 1399.7092 0.0000 0.0000 1730.9617 -7446.0733 297.7981 -9177.0350 -7442.1932 300.1059 181.4342 235.7916 30479.4222 3.1770 3.1617
ENERGY: 1700000 0.0000 0.0000 0.0000 0.0000 -10849.1748 1521.3185 0.0000 0.0000 1756.9188 -7570.9375 302.2638 -9327.8563 -7565.0528 299.8093 578.1932 679.9645 30082.2229 2.1298 1.9808
ENERGY: 1900000 0.0000 0.0000 0.0000 0.0000 -10729.2149 1499.6538 0.0000 0.0000 1754.5097 -7475.0514 301.8494 -9229.5611 -7472.2603 300.2760 446.4139 495.0082 30823.6948 3.6148 3.5357
TCL: Exiting due to exit command.
