Info: SIMULATION PARAMETERS:
Info: TIMESTEP               2
Info: NUMBER OF STEPS        0
Info: STEPS PER CYCLE        10
Info: PERIODIC CELL BASIS 1  36.592 0 0
Info: PERIODIC CELL BASIS 2  0 35.267 0
Info: PERIODIC CELL BASIS 3  0 0 34.229
Info: PERIODIC CELL CENTER   0 0 0
Info: WRAPPING WATERS AROUND PERIODIC BOUNDARIES ON OUTPUT.
Info: WRAPPING ALL CLUSTERS AROUND PERIODIC BOUNDARIES ON OUTPUT.
Info: FIRST LDB TIMESTEP     50
Info: LAST LDB TIMESTEP     -1
Info: HOM BACKGROUND SCALING 1
Info: PME BACKGROUND SCALING 1
Info: MIN ATOMS PER PATCH    40
Info: EMPTY PATCH LOAD       40 ATOMS
Info: INITIAL TEMPERATURE    300
Info: CENTER OF MASS MOVING INITIALLY? NO
Info: DIELECTRIC             1
Info: EXCLUDE                SCALED ONE-FOUR
Info: 1-4 ELECTROSTATICS SCALED BY 0.833333
Info: MODIFIED 1-4 VDW PARAMETERS WILL BE USED
Info: DCD FILENAME           mobley_5494918_equil.dcd
Info: DCD FREQUENCY          100000
Info: DCD FIRST STEP         100000
Info: DCD FILE WILL CONTAIN UNIT CELL DATA
Info: XST FILENAME           mobley_5494918_equil.xst
Info: XST FREQUENCY          100000
Info: NO VELOCITY DCD OUTPUT
Info: NO FORCE DCD OUTPUT
Info: OUTPUT FILENAME        mobley_5494918_equil
Info: BINARY OUTPUT FILES WILL BE USED
Info: RESTART FILENAME       mobley_5494918_equil.restart
Info: RESTART FREQUENCY      100000
Info: BINARY RESTART FILES WILL BE USED
Info: CUTOFF                 9
Info: PAIRLIST DISTANCE      11
Info: PAIRLIST SHRINK RATE   0.01
Info: PAIRLIST GROW RATE     0.01
Info: PAIRLIST TRIGGER       0.3
Info: PAIRLISTS PER CYCLE    2
Info: PAIRLISTS ENABLED
Info: MARGIN                 8
Info: HYDROGEN GROUP CUTOFF  2.5
Info: PATCH DIMENSION        21.5
Info: ENERGY OUTPUT STEPS    100000
Info: ENERGY EVALUATION STEPS    100000
Info: OUTPUT ENERGY PRECISION 4
Info: CROSSTERM ENERGY INCLUDED IN DIHEDRAL
Info: TIMING OUTPUT STEPS    1000000
Info: PRESSURE OUTPUT STEPS  100000
Info: FIXED ATOMS ACTIVE
Info: LANGEVIN DYNAMICS ACTIVE
Info: LANGEVIN TEMPERATURE   30
Info: LANGEVIN USING BBK INTEGRATOR
Info: LANGEVIN DAMPING COEFFICIENT IS 1 INVERSE PS
Info: LANGEVIN DYNAMICS APPLIED TO HYDROGENS
Info: LANGEVIN PISTON PRESSURE CONTROL ACTIVE
Info:        TARGET PRESSURE IS 1.01325 BAR
Info:     OSCILLATION PERIOD IS 50 FS
Info:             DECAY TIME IS 25 FS
Info:     PISTON TEMPERATURE IS 300 K
Info:       PRESSURE CONTROL IS GROUP-BASED
Info:    INITIAL STRAIN RATE IS 0 0 0
Info:       CELL FLUCTUATION IS ISOTROPIC
Info: PARTICLE MESH EWALD (PME) ACTIVE
Info: PME TOLERANCE               1e-06
Info: PME EWALD COEFFICIENT       0.348832
Info: PME INTERPOLATION ORDER     4
Info: PME GRID DIMENSIONS         40 36 36
Info: PME MAXIMUM GRID SPACING    1
Info: FULL ELECTROSTATIC EVALUATION FREQUENCY      2
Info: USING VERLET I (r-RESPA) MTS SCHEME.
Info: C1 SPLITTING OF LONG RANGE ELECTROSTATICS
Info: PLACING ATOMS IN PATCHES BY HYDROGEN GROUPS
Info: RIGID BONDS TO HYDROGEN : ALL
Info:         ERROR TOLERANCE : 1e-08
Info:          MAX ITERATIONS : 100
Info: RIGID WATER USING SETTLE ALGORITHM
Info: RANDOM NUMBER SEED     1743682405
Info: USE HYDROGEN BONDS?    NO
Info: Using AMBER format force field!
Info: AMBER PARM FILE        mobley_5494918.prmtop
Info: COORDINATE PDB         mobley_5494918.pdb
Info: Exclusions will be read from PARM file!
Info: SCNB (VDW SCALING)     2
Info: USING ARITHMETIC MEAN TO COMBINE L-J SIGMA PARAMETERS
Info: BINARY COORDINATES     mobley_5494918_min.coor
Info: SUMMARY OF PARAMETERS:
Info: 6 BONDS
Info: 6 ANGLES
Info:   6 HARMONIC
Info:   0 COSINE-BASED
Info: 3 DIHEDRAL
Info: 0 IMPROPER
Info: 0 CROSSTERM
Info: 0 VDW
Info: 15 VDW_PAIRS
Info: 0 NBTHOLE_PAIRS
Info: STRUCTURE SUMMARY:
Info: 2916 ATOMS
Info: 2915 BONDS
Info: 12 ANGLES
Info: 12 DIHEDRALS
Info: 0 IMPROPERS
Info: 0 CROSSTERMS
Info: 2937 EXCLUSIONS
Info: 9 FIXED ATOMS
Info: 2907 RIGID BONDS
Info: 0 RIGID BONDS BETWEEN FIXED ATOMS
Info: 5814 DEGREES OF FREEDOM
Info: 978 HYDROGEN GROUPS
Info: 3 ATOMS IN LARGEST HYDROGEN GROUP
Info: 978 MIGRATION GROUPS
Info: 3 ATOMS IN LARGEST MIGRATION GROUP
Info: 9 HYDROGEN GROUPS WITH ALL ATOMS FIXED
Info: TOTAL MASS = 17607.5 amu
Info: TOTAL CHARGE = -4.84288e-08 e
Info: MASS DENSITY = 0.661925 g/cm^3
Info: ATOM DENSITY = 0.0660144 atoms/A^3
Info: ADDED 0 IMPLICIT EXCLUSIONS
Info: NONBONDED TABLE R-SQUARED SPACING: 0.0625
Info: NONBONDED TABLE SIZE: 705 POINTS
Info: REMOVING COM VELOCITY -0.168257 -0.0520199 -0.129321
TCL: Running for 100000 steps
ETITLE: TS BOND ANGLE DIHED IMPRP ELECT VDW BOUNDARY MISC KINETIC TOTAL TEMP POTENTIAL TOTAL3 TEMPAVG PRESSURE GPRESSURE VOLUME PRESSAVG GPRESSAVG
ENERGY: 0 0.0000 0.0000 0.0000 0.0000 -13534.3470 2357.8858 0.0000 0.0000 1767.5467 -9408.9145 305.9752 -11176.4612 -9408.5235 305.9752 310.0177 348.2977 44172.1844 310.0177 348.2977
ENERGY: 100000 0.0000 0.0000 0.0000 0.0000 -14138.8824 2452.4436 0.0000 0.0000 176.2130 -11510.2258 30.5038 -11686.4388 -11509.9338 30.9963 -196.6321 -133.4020 28753.5740 4.0108 3.9826
TCL: Running 100000 steps at 60 kelvin.
TCL: Setting parameter langevinTemp to 60
TCL: Running for 100000 steps
ETITLE: TS BOND ANGLE DIHED IMPRP ELECT VDW BOUNDARY MISC KINETIC TOTAL TEMP POTENTIAL TOTAL3 TEMPAVG PRESSURE GPRESSURE VOLUME PRESSAVG GPRESSAVG
ENERGY: 100000 0.0000 0.0000 0.0000 0.0000 -14138.8824 2452.4436 0.0000 0.0000 176.1215 -11510.3174 30.4879 -11686.4388 -11509.9459 30.4879 -192.6927 -133.6425 28753.5740 -192.6927 -133.6425
ENERGY: 200000 0.0000 0.0000 0.0000 0.0000 -14075.4597 2431.8021 0.0000 0.0000 338.9158 -11304.7419 58.6688 -11643.6576 -11303.7927 59.9849 120.4994 167.9685 28213.2986 5.6628 5.7230
TCL: Running 100000 steps at 90 kelvin.
TCL: Setting parameter langevinTemp to 90
TCL: Running for 100000 steps
ETITLE: TS BOND ANGLE DIHED IMPRP ELECT VDW BOUNDARY MISC KINETIC TOTAL TEMP POTENTIAL TOTAL3 TEMPAVG PRESSURE GPRESSURE VOLUME PRESSAVG GPRESSAVG
ENERGY: 200000 0.0000 0.0000 0.0000 0.0000 -14075.4597 2431.8021 0.0000 0.0000 338.7404 -11304.9173 58.6384 -11643.6576 -11304.2784 58.6384 124.4522 168.3805 28213.2986 124.4522 168.3805
ENERGY: 300000 0.0000 0.0000 0.0000 0.0000 -13923.4082 2407.9268 0.0000 0.0000 509.0848 -11006.3965 88.1263 -11515.4814 -11005.1731 89.9538 256.7284 288.0541 28569.9369 4.0058 4.0598
TCL: Running 100000 steps at 120 kelvin.
TCL: Setting parameter langevinTemp to 120
TCL: Running for 100000 steps
ETITLE: TS BOND ANGLE DIHED IMPRP ELECT VDW BOUNDARY MISC KINETIC TOTAL TEMP POTENTIAL TOTAL3 TEMPAVG PRESSURE GPRESSURE VOLUME PRESSAVG GPRESSAVG
ENERGY: 300000 0.0000 0.0000 0.0000 0.0000 -13923.4082 2407.9268 0.0000 0.0000 508.8155 -11006.6659 88.0797 -11515.4814 -11005.5341 88.0797 246.4708 287.9964 28569.9369 246.4708 287.9964
ENERGY: 400000 0.0000 0.0000 0.0000 0.0000 -13826.6488 2448.5570 0.0000 0.0000 700.2316 -10677.8602 121.2152 -11378.0918 -10676.3025 120.0901 1392.8118 1443.3799 28168.3342 4.4592 4.4811
TCL: Running 100000 steps at 150 kelvin.
TCL: Setting parameter langevinTemp to 150
TCL: Running for 100000 steps
ETITLE: TS BOND ANGLE DIHED IMPRP ELECT VDW BOUNDARY MISC KINETIC TOTAL TEMP POTENTIAL TOTAL3 TEMPAVG PRESSURE GPRESSURE VOLUME PRESSAVG GPRESSAVG
ENERGY: 400000 0.0000 0.0000 0.0000 0.0000 -13826.6488 2448.5570 0.0000 0.0000 699.8939 -10678.1979 121.1567 -11378.0918 -10677.0190 121.1567 1393.4724 1442.9031 28168.3342 1393.4724 1442.9031
ENERGY: 500000 0.0000 0.0000 0.0000 0.0000 -13594.5791 2321.0358 0.0000 0.0000 841.8324 -10431.7109 145.7273 -11273.5433 -10430.8179 149.7881 685.8029 741.6284 28243.6506 2.9687 2.9906
TCL: Running 100000 steps at 180 kelvin.
TCL: Setting parameter langevinTemp to 180
TCL: Running for 100000 steps
ETITLE: TS BOND ANGLE DIHED IMPRP ELECT VDW BOUNDARY MISC KINETIC TOTAL TEMP POTENTIAL TOTAL3 TEMPAVG PRESSURE GPRESSURE VOLUME PRESSAVG GPRESSAVG
ENERGY: 500000 0.0000 0.0000 0.0000 0.0000 -13594.5791 2321.0358 0.0000 0.0000 841.3873 -10432.1560 145.6503 -11273.5433 -10430.5389 145.6503 702.4246 739.7656 28243.6506 702.4246 739.7656
ENERGY: 600000 0.0000 0.0000 0.0000 0.0000 -12970.8062 2054.2280 0.0000 0.0000 1054.6095 -9861.9687 182.5606 -10916.5782 -9859.3942 180.2260 -436.4469 -371.9814 28669.2882 3.2587 3.2896
TCL: Running 100000 steps at 210 kelvin.
TCL: Setting parameter langevinTemp to 210
TCL: Running for 100000 steps
ETITLE: TS BOND ANGLE DIHED IMPRP ELECT VDW BOUNDARY MISC KINETIC TOTAL TEMP POTENTIAL TOTAL3 TEMPAVG PRESSURE GPRESSURE VOLUME PRESSAVG GPRESSAVG
ENERGY: 600000 0.0000 0.0000 0.0000 0.0000 -12970.8062 2054.2280 0.0000 0.0000 1054.0847 -9862.4934 182.4698 -10916.5782 -9860.2646 182.4698 -434.8978 -372.7462 28669.2882 -434.8978 -372.7462
ENERGY: 700000 0.0000 0.0000 0.0000 0.0000 -12256.9928 1821.7644 0.0000 0.0000 1219.6060 -9215.6223 211.1227 -10435.2284 -9213.0307 209.8395 -482.2106 -416.5071 28780.3458 2.6438 2.9687
TCL: Running 100000 steps at 240 kelvin.
TCL: Setting parameter langevinTemp to 240
TCL: Running for 100000 steps
ETITLE: TS BOND ANGLE DIHED IMPRP ELECT VDW BOUNDARY MISC KINETIC TOTAL TEMP POTENTIAL TOTAL3 TEMPAVG PRESSURE GPRESSURE VOLUME PRESSAVG GPRESSAVG
ENERGY: 700000 0.0000 0.0000 0.0000 0.0000 -12256.9928 1821.7644 0.0000 0.0000 1218.9946 -9216.2338 211.0169 -10435.2284 -9214.1535 211.0169 -500.5538 -417.3684 28780.3458 -500.5538 -417.3684
ENERGY: 800000 0.0000 0.0000 0.0000 0.0000 -11694.5712 1678.7803 0.0000 0.0000 1392.5362 -8623.2547 241.0582 -10015.7909 -8620.9303 239.6028 -235.8818 -138.2886 28950.2312 3.4832 3.4710
TCL: Running 100000 steps at 270 kelvin.
TCL: Setting parameter langevinTemp to 270
TCL: Running for 100000 steps
ETITLE: TS BOND ANGLE DIHED IMPRP ELECT VDW BOUNDARY MISC KINETIC TOTAL TEMP POTENTIAL TOTAL3 TEMPAVG PRESSURE GPRESSURE VOLUME PRESSAVG GPRESSAVG
ENERGY: 800000 0.0000 0.0000 0.0000 0.0000 -11694.5712 1678.7803 0.0000 0.0000 1391.8100 -8623.9809 240.9325 -10015.7909 -8621.1678 240.9325 -227.5964 -140.4493 28950.2312 -227.5964 -140.4493
ENERGY: 900000 0.0000 0.0000 0.0000 0.0000 -11269.0478 1591.9102 0.0000 0.0000 1559.3369 -8117.8007 269.9326 -9677.1376 -8114.3658 269.5793 127.2304 180.8438 29263.9071 3.9227 4.0707
TCL: Running 1000000 steps at 300 kelvin.
TCL: Setting parameter langevinTemp to 300
TCL: Running for 1000000 steps
ETITLE: TS BOND ANGLE DIHED IMPRP ELECT VDW BOUNDARY MISC KINETIC TOTAL TEMP POTENTIAL TOTAL3 TEMPAVG PRESSURE GPRESSURE VOLUME PRESSAVG GPRESSAVG
ENERGY: 900000 0.0000 0.0000 0.0000 0.0000 -11269.0478 1591.9102 0.0000 0.0000 1558.5747 -8118.5628 269.8006 -9677.1376 -8115.7728 269.8006 100.5663 179.8174 29263.9071 100.5663 179.8174
ENERGY: 1100000 0.0000 0.0000 0.0000 0.0000 -10712.9879 1482.7164 0.0000 0.0000 1705.4771 -7524.7943 295.2305 -9230.2715 -7522.1267 300.4730 606.8297 675.2996 29508.7357 4.1071 4.2073
ENERGY: 1300000 0.0000 0.0000 0.0000 0.0000 -10753.3839 1546.6188 0.0000 0.0000 1742.6471 -7464.1181 301.6649 -9206.7652 -7460.0885 300.1775 904.4451 1013.9410 30093.6469 4.6185 4.5083
ENERGY: 1500000 0.0000 0.0000 0.0000 0.0000 -10601.0479 1361.4044 0.0000 0.0000 1736.5824 -7503.0611 300.6151 -9239.6435 -7496.8230 300.2348 -544.5327 -400.6720 29987.4333 2.6949 2.7461
ENERGY: 1700000 0.0000 0.0000 0.0000 0.0000 -10707.5237 1458.1970 0.0000 0.0000 1755.8768 -7493.4499 303.9551 -9249.3267 -7489.6617 299.7871 223.5570 293.8935 30120.0056 2.6580 2.7100
ENERGY: 1900000 0.0000 0.0000 0.0000 0.0000 -10607.3728 1422.9824 0.0000 0.0000 1776.8996 -7407.4909 307.5943 -9184.3905 -7404.0597 300.0425 231.1540 297.7480 29769.4955 3.1546 3.2072
TCL: Exiting due to exit command.
