Info: SIMULATION PARAMETERS:
Info: TIMESTEP               2
Info: NUMBER OF STEPS        0
Info: STEPS PER CYCLE        10
Info: PERIODIC CELL BASIS 1  36.281 0 0
Info: PERIODIC CELL BASIS 2  0 35.779 0
Info: PERIODIC CELL BASIS 3  0 0 34.471
Info: PERIODIC CELL CENTER   0 0 0
Info: WRAPPING WATERS AROUND PERIODIC BOUNDARIES ON OUTPUT.
Info: WRAPPING ALL CLUSTERS AROUND PERIODIC BOUNDARIES ON OUTPUT.
Info: FIRST LDB TIMESTEP     50
Info: LAST LDB TIMESTEP     -1
Info: HOM BACKGROUND SCALING 1
Info: PME BACKGROUND SCALING 1
Info: MIN ATOMS PER PATCH    40
Info: EMPTY PATCH LOAD       40 ATOMS
Info: INITIAL TEMPERATURE    300
Info: CENTER OF MASS MOVING INITIALLY? NO
Info: DIELECTRIC             1
Info: EXCLUDE                SCALED ONE-FOUR
Info: 1-4 ELECTROSTATICS SCALED BY 0.833333
Info: MODIFIED 1-4 VDW PARAMETERS WILL BE USED
Info: DCD FILENAME           mobley_8885088_equil.dcd
Info: DCD FREQUENCY          100000
Info: DCD FIRST STEP         100000
Info: DCD FILE WILL CONTAIN UNIT CELL DATA
Info: XST FILENAME           mobley_8885088_equil.xst
Info: XST FREQUENCY          100000
Info: NO VELOCITY DCD OUTPUT
Info: NO FORCE DCD OUTPUT
Info: OUTPUT FILENAME        mobley_8885088_equil
Info: BINARY OUTPUT FILES WILL BE USED
Info: RESTART FILENAME       mobley_8885088_equil.restart
Info: RESTART FREQUENCY      100000
Info: BINARY RESTART FILES WILL BE USED
Info: CUTOFF                 9
Info: PAIRLIST DISTANCE      11
Info: PAIRLIST SHRINK RATE   0.01
Info: PAIRLIST GROW RATE     0.01
Info: PAIRLIST TRIGGER       0.3
Info: PAIRLISTS PER CYCLE    2
Info: PAIRLISTS ENABLED
Info: MARGIN                 8
Info: HYDROGEN GROUP CUTOFF  2.5
Info: PATCH DIMENSION        21.5
Info: ENERGY OUTPUT STEPS    100000
Info: ENERGY EVALUATION STEPS    100000
Info: OUTPUT ENERGY PRECISION 4
Info: CROSSTERM ENERGY INCLUDED IN DIHEDRAL
Info: TIMING OUTPUT STEPS    1000000
Info: PRESSURE OUTPUT STEPS  100000
Info: FIXED ATOMS ACTIVE
Info: LANGEVIN DYNAMICS ACTIVE
Info: LANGEVIN TEMPERATURE   30
Info: LANGEVIN USING BBK INTEGRATOR
Info: LANGEVIN DAMPING COEFFICIENT IS 1 INVERSE PS
Info: LANGEVIN DYNAMICS APPLIED TO HYDROGENS
Info: LANGEVIN PISTON PRESSURE CONTROL ACTIVE
Info:        TARGET PRESSURE IS 1.01325 BAR
Info:     OSCILLATION PERIOD IS 50 FS
Info:             DECAY TIME IS 25 FS
Info:     PISTON TEMPERATURE IS 300 K
Info:       PRESSURE CONTROL IS GROUP-BASED
Info:    INITIAL STRAIN RATE IS 0 0 0
Info:       CELL FLUCTUATION IS ISOTROPIC
Info: PARTICLE MESH EWALD (PME) ACTIVE
Info: PME TOLERANCE               1e-06
Info: PME EWALD COEFFICIENT       0.348832
Info: PME INTERPOLATION ORDER     4
Info: PME GRID DIMENSIONS         40 36 36
Info: PME MAXIMUM GRID SPACING    1
Info: FULL ELECTROSTATIC EVALUATION FREQUENCY      2
Info: USING VERLET I (r-RESPA) MTS SCHEME.
Info: C1 SPLITTING OF LONG RANGE ELECTROSTATICS
Info: PLACING ATOMS IN PATCHES BY HYDROGEN GROUPS
Info: RIGID BONDS TO HYDROGEN : ALL
Info:         ERROR TOLERANCE : 1e-08
Info:          MAX ITERATIONS : 100
Info: RIGID WATER USING SETTLE ALGORITHM
Info: RANDOM NUMBER SEED     1743729682
Info: USE HYDROGEN BONDS?    NO
Info: Using AMBER format force field!
Info: AMBER PARM FILE        mobley_8885088.prmtop
Info: COORDINATE PDB         mobley_8885088.pdb
Info: Exclusions will be read from PARM file!
Info: SCNB (VDW SCALING)     2
Info: USING ARITHMETIC MEAN TO COMBINE L-J SIGMA PARAMETERS
Info: BINARY COORDINATES     mobley_8885088_min.coor
Info: SUMMARY OF PARAMETERS:
Info: 7 BONDS
Info: 8 ANGLES
Info:   8 HARMONIC
Info:   0 COSINE-BASED
Info: 9 DIHEDRAL
Info: 0 IMPROPER
Info: 0 CROSSTERM
Info: 0 VDW
Info: 21 VDW_PAIRS
Info: 0 NBTHOLE_PAIRS
Info: STRUCTURE SUMMARY:
Info: 2938 ATOMS
Info: 2938 BONDS
Info: 24 ANGLES
Info: 45 DIHEDRALS
Info: 0 IMPROPERS
Info: 0 CROSSTERMS
Info: 2991 EXCLUSIONS
Info: 13 FIXED ATOMS
Info: 2933 RIGID BONDS
Info: 8 RIGID BONDS BETWEEN FIXED ATOMS
Info: 5850 DEGREES OF FREEDOM
Info: 980 HYDROGEN GROUPS
Info: 3 ATOMS IN LARGEST HYDROGEN GROUP
Info: 980 MIGRATION GROUPS
Info: 3 ATOMS IN LARGEST MIGRATION GROUP
Info: 5 HYDROGEN GROUPS WITH ALL ATOMS FIXED
Info: TOTAL MASS = 17633.7 amu
Info: TOTAL CHARGE = -0.000200003 e
Info: MASS DENSITY = 0.654398 g/cm^3
Info: ATOM DENSITY = 0.0656584 atoms/A^3
Info: ADDED 0 IMPLICIT EXCLUSIONS
Info: NONBONDED TABLE R-SQUARED SPACING: 0.0625
Info: NONBONDED TABLE SIZE: 705 POINTS
Info: REMOVING COM VELOCITY -0.205009 -0.0780974 -0.177751
TCL: Running for 100000 steps
ETITLE: TS BOND ANGLE DIHED IMPRP ELECT VDW BOUNDARY MISC KINETIC TOTAL TEMP POTENTIAL TOTAL3 TEMPAVG PRESSURE GPRESSURE VOLUME PRESSAVG GPRESSAVG
ENERGY: 0 0.0000 0.0000 0.0000 0.0000 -13575.5101 2406.5776 0.0000 0.0000 1735.9481 -9432.9844 298.6560 -11168.9325 -9432.6511 298.6560 626.0477 658.3731 44746.7327 626.0477 658.3731
ENERGY: 100000 0.0000 0.0000 0.0000 0.0000 -14062.7057 2383.4918 0.0000 0.0000 171.6195 -11507.5944 29.5258 -11679.2139 -11507.0822 30.8556 -622.3580 -574.3797 29128.0560 2.8761 2.8485
TCL: Running 100000 steps at 60 kelvin.
TCL: Setting parameter langevinTemp to 60
TCL: Running for 100000 steps
ETITLE: TS BOND ANGLE DIHED IMPRP ELECT VDW BOUNDARY MISC KINETIC TOTAL TEMP POTENTIAL TOTAL3 TEMPAVG PRESSURE GPRESSURE VOLUME PRESSAVG GPRESSAVG
ENERGY: 100000 0.0000 0.0000 0.0000 0.0000 -14062.7057 2383.4918 0.0000 0.0000 171.5310 -11507.6829 29.5105 -11679.2139 -11507.2655 29.5105 -626.0616 -574.4202 29128.0560 -626.0616 -574.4202
ENERGY: 200000 0.0000 0.0000 0.0000 0.0000 -14016.5446 2390.7420 0.0000 0.0000 349.9823 -11275.8202 60.2117 -11625.8026 -11274.7016 60.1021 -147.8525 -141.2448 28722.6260 3.9375 3.9809
TCL: Running 100000 steps at 90 kelvin.
TCL: Setting parameter langevinTemp to 90
TCL: Running for 100000 steps
ETITLE: TS BOND ANGLE DIHED IMPRP ELECT VDW BOUNDARY MISC KINETIC TOTAL TEMP POTENTIAL TOTAL3 TEMPAVG PRESSURE GPRESSURE VOLUME PRESSAVG GPRESSAVG
ENERGY: 200000 0.0000 0.0000 0.0000 0.0000 -14016.5446 2390.7420 0.0000 0.0000 349.7992 -11276.0033 60.1802 -11625.8026 -11275.2132 60.1802 -196.5087 -141.3033 28722.6260 -196.5087 -141.3033
ENERGY: 300000 0.0000 0.0000 0.0000 0.0000 -13811.2956 2308.4533 0.0000 0.0000 515.2210 -10987.6213 88.6397 -11502.8422 -10985.9139 90.0821 -316.1160 -259.3494 28471.0305 4.6745 4.6259
TCL: Running 100000 steps at 120 kelvin.
TCL: Setting parameter langevinTemp to 120
TCL: Running for 100000 steps
ETITLE: TS BOND ANGLE DIHED IMPRP ELECT VDW BOUNDARY MISC KINETIC TOTAL TEMP POTENTIAL TOTAL3 TEMPAVG PRESSURE GPRESSURE VOLUME PRESSAVG GPRESSAVG
ENERGY: 300000 0.0000 0.0000 0.0000 0.0000 -13811.2956 2308.4533 0.0000 0.0000 514.9637 -10987.8785 88.5954 -11502.8422 -10986.8826 88.5954 -317.6513 -259.2111 28471.0305 -317.6513 -259.2111
ENERGY: 400000 0.0000 0.0000 0.0000 0.0000 -13793.5384 2387.7593 0.0000 0.0000 687.5857 -10718.1933 118.2936 -11405.7791 -10716.5128 119.8909 632.7249 690.6190 28650.7105 4.4975 4.5297
TCL: Running 100000 steps at 150 kelvin.
TCL: Setting parameter langevinTemp to 150
TCL: Running for 100000 steps
ETITLE: TS BOND ANGLE DIHED IMPRP ELECT VDW BOUNDARY MISC KINETIC TOTAL TEMP POTENTIAL TOTAL3 TEMPAVG PRESSURE GPRESSURE VOLUME PRESSAVG GPRESSAVG
ENERGY: 400000 0.0000 0.0000 0.0000 0.0000 -13793.5384 2387.7593 0.0000 0.0000 687.2315 -10718.5476 118.2327 -11405.7791 -10717.0955 118.2327 641.5556 690.0163 28650.7105 641.5556 690.0163
ENERGY: 500000 0.0000 0.0000 0.0000 0.0000 -13516.2993 2269.2686 0.0000 0.0000 885.4069 -10361.6239 152.3272 -11247.0307 -10359.5782 149.5971 201.6341 238.2158 28712.2483 3.0274 2.9858
TCL: Running 100000 steps at 180 kelvin.
TCL: Setting parameter langevinTemp to 180
TCL: Running for 100000 steps
ETITLE: TS BOND ANGLE DIHED IMPRP ELECT VDW BOUNDARY MISC KINETIC TOTAL TEMP POTENTIAL TOTAL3 TEMPAVG PRESSURE GPRESSURE VOLUME PRESSAVG GPRESSAVG
ENERGY: 500000 0.0000 0.0000 0.0000 0.0000 -13516.2993 2269.2686 0.0000 0.0000 884.9711 -10362.0596 152.2522 -11247.0307 -10360.4282 152.2522 187.6474 237.9674 28712.2483 187.6474 237.9674
ENERGY: 600000 0.0000 0.0000 0.0000 0.0000 -13080.2490 2085.9615 0.0000 0.0000 1037.4229 -9956.8646 178.4803 -10994.2875 -9953.9024 180.1937 -259.3946 -261.6019 28609.8723 2.9931 3.0037
TCL: Running 100000 steps at 210 kelvin.
TCL: Setting parameter langevinTemp to 210
TCL: Running for 100000 steps
ETITLE: TS BOND ANGLE DIHED IMPRP ELECT VDW BOUNDARY MISC KINETIC TOTAL TEMP POTENTIAL TOTAL3 TEMPAVG PRESSURE GPRESSURE VOLUME PRESSAVG GPRESSAVG
ENERGY: 600000 0.0000 0.0000 0.0000 0.0000 -13080.2490 2085.9615 0.0000 0.0000 1036.8901 -9957.3974 178.3887 -10994.2875 -9955.2588 178.3887 -313.4698 -260.8628 28609.8723 -313.4698 -260.8628
ENERGY: 700000 0.0000 0.0000 0.0000 0.0000 -12320.9819 1836.5806 0.0000 0.0000 1213.7125 -9270.6888 208.8095 -10484.4013 -9268.9157 209.9536 -554.5228 -418.0998 28758.0696 3.3861 3.2047
TCL: Running 100000 steps at 240 kelvin.
TCL: Setting parameter langevinTemp to 240
TCL: Running for 100000 steps
ETITLE: TS BOND ANGLE DIHED IMPRP ELECT VDW BOUNDARY MISC KINETIC TOTAL TEMP POTENTIAL TOTAL3 TEMPAVG PRESSURE GPRESSURE VOLUME PRESSAVG GPRESSAVG
ENERGY: 700000 0.0000 0.0000 0.0000 0.0000 -12320.9819 1836.5806 0.0000 0.0000 1213.0857 -9271.3156 208.7017 -10484.4013 -9268.8543 208.7017 -518.1587 -418.5795 28758.0696 -518.1587 -418.5795
ENERGY: 800000 0.0000 0.0000 0.0000 0.0000 -11725.7950 1700.2590 0.0000 0.0000 1361.9291 -8663.6068 234.3090 -10025.5359 -8659.6543 239.7172 -144.5978 -13.1566 29058.2298 3.0875 3.3123
TCL: Running 100000 steps at 270 kelvin.
TCL: Setting parameter langevinTemp to 270
TCL: Running for 100000 steps
ETITLE: TS BOND ANGLE DIHED IMPRP ELECT VDW BOUNDARY MISC KINETIC TOTAL TEMP POTENTIAL TOTAL3 TEMPAVG PRESSURE GPRESSURE VOLUME PRESSAVG GPRESSAVG
ENERGY: 800000 0.0000 0.0000 0.0000 0.0000 -11725.7950 1700.2590 0.0000 0.0000 1361.2216 -8664.3143 234.1873 -10025.5359 -8662.0885 234.1873 -103.7980 -12.4329 29058.2298 -103.7980 -12.4329
ENERGY: 900000 0.0000 0.0000 0.0000 0.0000 -11228.1362 1557.7158 0.0000 0.0000 1568.9091 -8101.5113 269.9183 -9670.4204 -8099.7156 269.7052 30.8720 145.6679 29114.0167 3.8780 3.6264
TCL: Running 1000000 steps at 300 kelvin.
TCL: Setting parameter langevinTemp to 300
TCL: Running for 1000000 steps
ETITLE: TS BOND ANGLE DIHED IMPRP ELECT VDW BOUNDARY MISC KINETIC TOTAL TEMP POTENTIAL TOTAL3 TEMPAVG PRESSURE GPRESSURE VOLUME PRESSAVG GPRESSAVG
ENERGY: 900000 0.0000 0.0000 0.0000 0.0000 -11228.1362 1557.7158 0.0000 0.0000 1568.1086 -8102.3119 269.7806 -9670.4204 -8099.8671 269.7806 65.2840 143.5484 29114.0167 65.2840 143.5484
ENERGY: 1100000 0.0000 0.0000 0.0000 0.0000 -10705.7769 1408.6366 0.0000 0.0000 1688.9456 -7608.1947 290.5696 -9297.1402 -7605.6356 300.5796 -79.6208 -30.1993 29837.2801 2.0529 1.9159
ENERGY: 1300000 0.0000 0.0000 0.0000 0.0000 -10739.1462 1467.3688 0.0000 0.0000 1779.1651 -7492.6123 306.0911 -9271.7773 -7489.2345 300.7452 239.6377 319.3254 29961.4803 3.4337 3.3667
ENERGY: 1500000 0.0000 0.0000 0.0000 0.0000 -10656.4573 1403.8417 0.0000 0.0000 1763.7172 -7488.8984 303.4335 -9252.6156 -7486.1311 300.8766 -12.4456 50.9723 29997.8196 1.8748 1.9249
ENERGY: 1700000 0.0000 0.0000 0.0000 0.0000 -10805.8537 1505.7856 0.0000 0.0000 1764.6708 -7535.3973 303.5975 -9300.0681 -7531.8829 300.0526 290.9785 344.5149 30525.3301 1.9994 1.8562
ENERGY: 1900000 0.0000 0.0000 0.0000 0.0000 -10584.0153 1403.8978 0.0000 0.0000 1721.0711 -7459.0463 296.0965 -9180.1175 -7455.6638 299.7805 -298.2805 -140.6404 30494.5853 2.9232 2.9876
TCL: Exiting due to exit command.
