Info: SIMULATION PARAMETERS:
Info: TIMESTEP               2
Info: NUMBER OF STEPS        0
Info: STEPS PER CYCLE        10
Info: PERIODIC CELL BASIS 1  37.133 0 0
Info: PERIODIC CELL BASIS 2  0 35.779 0
Info: PERIODIC CELL BASIS 3  0 0 33.088
Info: PERIODIC CELL CENTER   0 0 0
Info: WRAPPING WATERS AROUND PERIODIC BOUNDARIES ON OUTPUT.
Info: WRAPPING ALL CLUSTERS AROUND PERIODIC BOUNDARIES ON OUTPUT.
Info: FIRST LDB TIMESTEP     50
Info: LAST LDB TIMESTEP     -1
Info: HOM BACKGROUND SCALING 1
Info: PME BACKGROUND SCALING 1
Info: MIN ATOMS PER PATCH    40
Info: EMPTY PATCH LOAD       40 ATOMS
Info: INITIAL TEMPERATURE    300
Info: CENTER OF MASS MOVING INITIALLY? NO
Info: DIELECTRIC             1
Info: EXCLUDE                SCALED ONE-FOUR
Info: 1-4 ELECTROSTATICS SCALED BY 0.833333
Info: MODIFIED 1-4 VDW PARAMETERS WILL BE USED
Info: DCD FILENAME           mobley_5311804_equil.dcd
Info: DCD FREQUENCY          100000
Info: DCD FIRST STEP         100000
Info: DCD FILE WILL CONTAIN UNIT CELL DATA
Info: XST FILENAME           mobley_5311804_equil.xst
Info: XST FREQUENCY          100000
Info: NO VELOCITY DCD OUTPUT
Info: NO FORCE DCD OUTPUT
Info: OUTPUT FILENAME        mobley_5311804_equil
Info: BINARY OUTPUT FILES WILL BE USED
Info: RESTART FILENAME       mobley_5311804_equil.restart
Info: RESTART FREQUENCY      100000
Info: BINARY RESTART FILES WILL BE USED
Info: CUTOFF                 9
Info: PAIRLIST DISTANCE      11
Info: PAIRLIST SHRINK RATE   0.01
Info: PAIRLIST GROW RATE     0.01
Info: PAIRLIST TRIGGER       0.3
Info: PAIRLISTS PER CYCLE    2
Info: PAIRLISTS ENABLED
Info: MARGIN                 8
Info: HYDROGEN GROUP CUTOFF  2.5
Info: PATCH DIMENSION        21.5
Info: ENERGY OUTPUT STEPS    100000
Info: ENERGY EVALUATION STEPS    100000
Info: OUTPUT ENERGY PRECISION 4
Info: CROSSTERM ENERGY INCLUDED IN DIHEDRAL
Info: TIMING OUTPUT STEPS    1000000
Info: PRESSURE OUTPUT STEPS  100000
Info: FIXED ATOMS ACTIVE
Info: LANGEVIN DYNAMICS ACTIVE
Info: LANGEVIN TEMPERATURE   30
Info: LANGEVIN USING BBK INTEGRATOR
Info: LANGEVIN DAMPING COEFFICIENT IS 1 INVERSE PS
Info: LANGEVIN DYNAMICS APPLIED TO HYDROGENS
Info: LANGEVIN PISTON PRESSURE CONTROL ACTIVE
Info:        TARGET PRESSURE IS 1.01325 BAR
Info:     OSCILLATION PERIOD IS 50 FS
Info:             DECAY TIME IS 25 FS
Info:     PISTON TEMPERATURE IS 300 K
Info:       PRESSURE CONTROL IS GROUP-BASED
Info:    INITIAL STRAIN RATE IS 0 0 0
Info:       CELL FLUCTUATION IS ISOTROPIC
Info: PARTICLE MESH EWALD (PME) ACTIVE
Info: PME TOLERANCE               1e-06
Info: PME EWALD COEFFICIENT       0.348832
Info: PME INTERPOLATION ORDER     4
Info: PME GRID DIMENSIONS         40 36 36
Info: PME MAXIMUM GRID SPACING    1
Info: FULL ELECTROSTATIC EVALUATION FREQUENCY      2
Info: USING VERLET I (r-RESPA) MTS SCHEME.
Info: C1 SPLITTING OF LONG RANGE ELECTROSTATICS
Info: PLACING ATOMS IN PATCHES BY HYDROGEN GROUPS
Info: RIGID BONDS TO HYDROGEN : ALL
Info:         ERROR TOLERANCE : 1e-08
Info:          MAX ITERATIONS : 100
Info: RIGID WATER USING SETTLE ALGORITHM
Info: RANDOM NUMBER SEED     1744092225
Info: USE HYDROGEN BONDS?    NO
Info: Using AMBER format force field!
Info: AMBER PARM FILE        mobley_5311804.prmtop
Info: COORDINATE PDB         mobley_5311804.pdb
Info: Exclusions will be read from PARM file!
Info: SCNB (VDW SCALING)     2
Info: USING ARITHMETIC MEAN TO COMBINE L-J SIGMA PARAMETERS
Info: BINARY COORDINATES     mobley_5311804_min.coor
Info: SUMMARY OF PARAMETERS:
Info: 8 BONDS
Info: 8 ANGLES
Info:   8 HARMONIC
Info:   0 COSINE-BASED
Info: 4 DIHEDRAL
Info: 0 IMPROPER
Info: 0 CROSSTERM
Info: 0 VDW
Info: 28 VDW_PAIRS
Info: 0 NBTHOLE_PAIRS
Info: STRUCTURE SUMMARY:
Info: 2911 ATOMS
Info: 2911 BONDS
Info: 25 ANGLES
Info: 39 DIHEDRALS
Info: 0 IMPROPERS
Info: 0 CROSSTERMS
Info: 2966 EXCLUSIONS
Info: 16 FIXED ATOMS
Info: 2903 RIGID BONDS
Info: 8 RIGID BONDS BETWEEN FIXED ATOMS
Info: 5790 DEGREES OF FREEDOM
Info: 973 HYDROGEN GROUPS
Info: 3 ATOMS IN LARGEST HYDROGEN GROUP
Info: 973 MIGRATION GROUPS
Info: 3 ATOMS IN LARGEST MIGRATION GROUP
Info: 8 HYDROGEN GROUPS WITH ALL ATOMS FIXED
Info: TOTAL MASS = 17493.6 amu
Info: TOTAL CHARGE = -0.000200011 e
Info: MASS DENSITY = 0.660814 g/cm^3
Info: ATOM DENSITY = 0.0662191 atoms/A^3
Info: ADDED 0 IMPLICIT EXCLUSIONS
Info: NONBONDED TABLE R-SQUARED SPACING: 0.0625
Info: NONBONDED TABLE SIZE: 705 POINTS
Info: REMOVING COM VELOCITY -0.0219756 -0.174732 0.220933
TCL: Running for 100000 steps
ETITLE: TS BOND ANGLE DIHED IMPRP ELECT VDW BOUNDARY MISC KINETIC TOTAL TEMP POTENTIAL TOTAL3 TEMPAVG PRESSURE GPRESSURE VOLUME PRESSAVG GPRESSAVG
ENERGY: 0 0.0000 0.0000 0.0000 0.0000 -13493.9080 2345.3093 0.0000 0.0000 1708.3524 -9440.2463 296.9541 -11148.5987 -9439.9124 296.9541 264.3645 286.8203 43960.1082 264.3645 286.8203
ENERGY: 100000 0.0000 0.0000 0.0000 0.0000 -14065.1548 2452.6432 0.0000 0.0000 174.1793 -11438.3323 30.2767 -11612.5116 -11437.9385 30.9413 224.5624 281.3059 28356.3232 3.9981 4.0378
TCL: Running 100000 steps at 60 kelvin.
TCL: Setting parameter langevinTemp to 60
TCL: Running for 100000 steps
ETITLE: TS BOND ANGLE DIHED IMPRP ELECT VDW BOUNDARY MISC KINETIC TOTAL TEMP POTENTIAL TOTAL3 TEMPAVG PRESSURE GPRESSURE VOLUME PRESSAVG GPRESSAVG
ENERGY: 100000 0.0000 0.0000 0.0000 0.0000 -14065.1548 2452.6432 0.0000 0.0000 174.0918 -11438.4198 30.2615 -11612.5116 -11437.9895 30.2615 234.2419 281.2129 28356.3232 234.2419 281.2129
ENERGY: 200000 0.0000 0.0000 0.0000 0.0000 -13969.4270 2457.6574 0.0000 0.0000 341.2065 -11170.5631 59.3102 -11511.7696 -11170.0865 60.0528 895.6078 958.3141 27870.9178 2.9684 2.9684
TCL: Running 100000 steps at 90 kelvin.
TCL: Setting parameter langevinTemp to 90
TCL: Running for 100000 steps
ETITLE: TS BOND ANGLE DIHED IMPRP ELECT VDW BOUNDARY MISC KINETIC TOTAL TEMP POTENTIAL TOTAL3 TEMPAVG PRESSURE GPRESSURE VOLUME PRESSAVG GPRESSAVG
ENERGY: 200000 0.0000 0.0000 0.0000 0.0000 -13969.4270 2457.6574 0.0000 0.0000 341.0300 -11170.7396 59.2795 -11511.7696 -11170.1805 59.2795 905.9381 958.3544 27870.9178 905.9381 958.3544
ENERGY: 300000 0.0000 0.0000 0.0000 0.0000 -13868.3343 2384.7775 0.0000 0.0000 506.2589 -10977.2979 88.0004 -11483.5568 -10975.8060 89.9091 426.0814 459.9927 27987.8185 3.9422 3.9417
TCL: Running 100000 steps at 120 kelvin.
TCL: Setting parameter langevinTemp to 120
TCL: Running for 100000 steps
ETITLE: TS BOND ANGLE DIHED IMPRP ELECT VDW BOUNDARY MISC KINETIC TOTAL TEMP POTENTIAL TOTAL3 TEMPAVG PRESSURE GPRESSURE VOLUME PRESSAVG GPRESSAVG
ENERGY: 300000 0.0000 0.0000 0.0000 0.0000 -13868.3343 2384.7775 0.0000 0.0000 506.0104 -10977.5465 87.9572 -11483.5568 -10976.5025 87.9572 407.8316 460.6027 27987.8185 407.8316 460.6027
ENERGY: 400000 0.0000 0.0000 0.0000 0.0000 -13619.0968 2317.9284 0.0000 0.0000 718.4699 -10582.6985 124.8879 -11301.1684 -10581.9154 119.9455 704.7602 753.4723 27927.8614 3.6843 3.7563
TCL: Running 100000 steps at 150 kelvin.
TCL: Setting parameter langevinTemp to 150
TCL: Running for 100000 steps
ETITLE: TS BOND ANGLE DIHED IMPRP ELECT VDW BOUNDARY MISC KINETIC TOTAL TEMP POTENTIAL TOTAL3 TEMPAVG PRESSURE GPRESSURE VOLUME PRESSAVG GPRESSAVG
ENERGY: 400000 0.0000 0.0000 0.0000 0.0000 -13619.0968 2317.9284 0.0000 0.0000 718.1256 -10583.0428 124.8281 -11301.1684 -10582.1622 124.8281 697.5633 753.3542 27927.8614 697.5633 753.3542
ENERGY: 500000 0.0000 0.0000 0.0000 0.0000 -13254.2579 2104.1121 0.0000 0.0000 850.5801 -10299.5656 147.8519 -11150.1457 -10297.0561 150.3391 -1092.9964 -994.4547 28714.2009 4.5038 4.4987
TCL: Running 100000 steps at 180 kelvin.
TCL: Setting parameter langevinTemp to 180
TCL: Running for 100000 steps
ETITLE: TS BOND ANGLE DIHED IMPRP ELECT VDW BOUNDARY MISC KINETIC TOTAL TEMP POTENTIAL TOTAL3 TEMPAVG PRESSURE GPRESSURE VOLUME PRESSAVG GPRESSAVG
ENERGY: 500000 0.0000 0.0000 0.0000 0.0000 -13254.2579 2104.1121 0.0000 0.0000 850.1488 -10299.9970 147.7770 -11150.1457 -10298.2500 147.7770 -1039.0904 -994.1710 28714.2009 -1039.0904 -994.1710
ENERGY: 600000 0.0000 0.0000 0.0000 0.0000 -12978.2409 2083.7017 0.0000 0.0000 1039.6716 -9854.8676 180.7207 -10894.5392 -9852.2143 180.0048 -158.9287 -142.9519 28672.0220 2.3767 2.5223
TCL: Running 100000 steps at 210 kelvin.
TCL: Setting parameter langevinTemp to 210
TCL: Running for 100000 steps
ETITLE: TS BOND ANGLE DIHED IMPRP ELECT VDW BOUNDARY MISC KINETIC TOTAL TEMP POTENTIAL TOTAL3 TEMPAVG PRESSURE GPRESSURE VOLUME PRESSAVG GPRESSAVG
ENERGY: 600000 0.0000 0.0000 0.0000 0.0000 -12978.2409 2083.7017 0.0000 0.0000 1039.1443 -9855.3949 180.6291 -10894.5392 -9853.3349 180.6291 -209.9590 -142.3005 28672.0220 -209.9590 -142.3005
ENERGY: 700000 0.0000 0.0000 0.0000 0.0000 -12240.0288 1818.3446 0.0000 0.0000 1212.8522 -9208.8320 210.8238 -10421.6843 -9206.0286 209.6543 -433.2901 -386.5782 28404.8146 3.6282 3.6920
TCL: Running 100000 steps at 240 kelvin.
TCL: Setting parameter langevinTemp to 240
TCL: Running for 100000 steps
ETITLE: TS BOND ANGLE DIHED IMPRP ELECT VDW BOUNDARY MISC KINETIC TOTAL TEMP POTENTIAL TOTAL3 TEMPAVG PRESSURE GPRESSURE VOLUME PRESSAVG GPRESSAVG
ENERGY: 700000 0.0000 0.0000 0.0000 0.0000 -12240.0288 1818.3446 0.0000 0.0000 1212.2605 -9209.4238 210.7210 -10421.6843 -9206.7528 210.7210 -455.0857 -386.7394 28404.8146 -455.0857 -386.7394
ENERGY: 800000 0.0000 0.0000 0.0000 0.0000 -11748.0349 1704.3879 0.0000 0.0000 1356.4448 -8687.2022 235.7838 -10043.6470 -8685.2824 240.0300 -73.4555 30.4224 28547.3621 1.9343 2.1320
TCL: Running 100000 steps at 270 kelvin.
TCL: Setting parameter langevinTemp to 270
TCL: Running for 100000 steps
ETITLE: TS BOND ANGLE DIHED IMPRP ELECT VDW BOUNDARY MISC KINETIC TOTAL TEMP POTENTIAL TOTAL3 TEMPAVG PRESSURE GPRESSURE VOLUME PRESSAVG GPRESSAVG
ENERGY: 800000 0.0000 0.0000 0.0000 0.0000 -11748.0349 1704.3879 0.0000 0.0000 1355.7579 -8687.8891 235.6644 -10043.6470 -8685.6749 235.6644 -49.8585 30.8806 28547.3621 -49.8585 30.8806
ENERGY: 900000 0.0000 0.0000 0.0000 0.0000 -10970.0526 1526.4453 0.0000 0.0000 1563.1489 -7880.4584 271.7141 -9443.6072 -7879.1579 269.8881 210.4478 276.1960 29217.0335 2.3447 2.3185
TCL: Running 1000000 steps at 300 kelvin.
TCL: Setting parameter langevinTemp to 300
TCL: Running for 1000000 steps
ETITLE: TS BOND ANGLE DIHED IMPRP ELECT VDW BOUNDARY MISC KINETIC TOTAL TEMP POTENTIAL TOTAL3 TEMPAVG PRESSURE GPRESSURE VOLUME PRESSAVG GPRESSAVG
ENERGY: 900000 0.0000 0.0000 0.0000 0.0000 -10970.0526 1526.4453 0.0000 0.0000 1562.3996 -7881.2077 271.5838 -9443.6072 -7879.1881 271.5838 186.0244 274.6209 29217.0335 186.0244 274.6209
ENERGY: 1100000 0.0000 0.0000 0.0000 0.0000 -10493.5298 1351.4878 0.0000 0.0000 1751.9310 -7390.1109 304.5291 -9142.0420 -7386.6920 300.0237 -261.3985 -202.0175 29992.9791 2.9440 2.9527
ENERGY: 1300000 0.0000 0.0000 0.0000 0.0000 -10743.9829 1472.7382 0.0000 0.0000 1723.1150 -7548.1297 299.5202 -9271.2447 -7545.6598 300.3436 335.9140 384.4595 29682.3363 4.1565 4.0244
ENERGY: 1500000 0.0000 0.0000 0.0000 0.0000 -10669.0331 1410.9119 0.0000 0.0000 1735.5592 -7522.5620 301.6833 -9258.1211 -7520.2817 300.0632 -84.8642 -4.7553 29655.0099 3.3642 3.2611
ENERGY: 1700000 0.0000 0.0000 0.0000 0.0000 -10625.4845 1447.1332 0.0000 0.0000 1699.9971 -7478.3543 295.5017 -9178.3514 -7477.3045 300.0791 -138.0369 -32.7470 30425.2702 3.0098 2.8326
ENERGY: 1900000 0.0000 0.0000 0.0000 0.0000 -10634.2266 1481.0674 0.0000 0.0000 1696.1197 -7457.0395 294.8277 -9153.1592 -7453.4162 300.1106 629.4000 711.3584 29659.6971 3.5795 3.6591
TCL: Exiting due to exit command.
