Info: SIMULATION PARAMETERS:
Info: TIMESTEP               2
Info: NUMBER OF STEPS        0
Info: STEPS PER CYCLE        10
Info: PERIODIC CELL BASIS 1  37.133 0 0
Info: PERIODIC CELL BASIS 2  0 36.611 0
Info: PERIODIC CELL BASIS 3  0 0 32.993
Info: PERIODIC CELL CENTER   0 0 0
Info: WRAPPING WATERS AROUND PERIODIC BOUNDARIES ON OUTPUT.
Info: WRAPPING ALL CLUSTERS AROUND PERIODIC BOUNDARIES ON OUTPUT.
Info: FIRST LDB TIMESTEP     50
Info: LAST LDB TIMESTEP     -1
Info: HOM BACKGROUND SCALING 1
Info: PME BACKGROUND SCALING 1
Info: MIN ATOMS PER PATCH    40
Info: EMPTY PATCH LOAD       40 ATOMS
Info: INITIAL TEMPERATURE    300
Info: CENTER OF MASS MOVING INITIALLY? NO
Info: DIELECTRIC             1
Info: EXCLUDE                SCALED ONE-FOUR
Info: 1-4 ELECTROSTATICS SCALED BY 0.833333
Info: MODIFIED 1-4 VDW PARAMETERS WILL BE USED
Info: DCD FILENAME           mobley_2489709_equil.dcd
Info: DCD FREQUENCY          100000
Info: DCD FIRST STEP         100000
Info: DCD FILE WILL CONTAIN UNIT CELL DATA
Info: XST FILENAME           mobley_2489709_equil.xst
Info: XST FREQUENCY          100000
Info: NO VELOCITY DCD OUTPUT
Info: NO FORCE DCD OUTPUT
Info: OUTPUT FILENAME        mobley_2489709_equil
Info: BINARY OUTPUT FILES WILL BE USED
Info: RESTART FILENAME       mobley_2489709_equil.restart
Info: RESTART FREQUENCY      100000
Info: BINARY RESTART FILES WILL BE USED
Info: CUTOFF                 9
Info: PAIRLIST DISTANCE      11
Info: PAIRLIST SHRINK RATE   0.01
Info: PAIRLIST GROW RATE     0.01
Info: PAIRLIST TRIGGER       0.3
Info: PAIRLISTS PER CYCLE    2
Info: PAIRLISTS ENABLED
Info: MARGIN                 8
Info: HYDROGEN GROUP CUTOFF  2.5
Info: PATCH DIMENSION        21.5
Info: ENERGY OUTPUT STEPS    100000
Info: ENERGY EVALUATION STEPS    100000
Info: OUTPUT ENERGY PRECISION 4
Info: CROSSTERM ENERGY INCLUDED IN DIHEDRAL
Info: TIMING OUTPUT STEPS    1000000
Info: PRESSURE OUTPUT STEPS  100000
Info: FIXED ATOMS ACTIVE
Info: LANGEVIN DYNAMICS ACTIVE
Info: LANGEVIN TEMPERATURE   30
Info: LANGEVIN USING BBK INTEGRATOR
Info: LANGEVIN DAMPING COEFFICIENT IS 1 INVERSE PS
Info: LANGEVIN DYNAMICS APPLIED TO HYDROGENS
Info: LANGEVIN PISTON PRESSURE CONTROL ACTIVE
Info:        TARGET PRESSURE IS 1.01325 BAR
Info:     OSCILLATION PERIOD IS 50 FS
Info:             DECAY TIME IS 25 FS
Info:     PISTON TEMPERATURE IS 300 K
Info:       PRESSURE CONTROL IS GROUP-BASED
Info:    INITIAL STRAIN RATE IS 0 0 0
Info:       CELL FLUCTUATION IS ISOTROPIC
Info: PARTICLE MESH EWALD (PME) ACTIVE
Info: PME TOLERANCE               1e-06
Info: PME EWALD COEFFICIENT       0.348832
Info: PME INTERPOLATION ORDER     4
Info: PME GRID DIMENSIONS         40 40 36
Info: PME MAXIMUM GRID SPACING    1
Info: FULL ELECTROSTATIC EVALUATION FREQUENCY      2
Info: USING VERLET I (r-RESPA) MTS SCHEME.
Info: C1 SPLITTING OF LONG RANGE ELECTROSTATICS
Info: PLACING ATOMS IN PATCHES BY HYDROGEN GROUPS
Info: RIGID BONDS TO HYDROGEN : ALL
Info:         ERROR TOLERANCE : 1e-08
Info:          MAX ITERATIONS : 100
Info: RIGID WATER USING SETTLE ALGORITHM
Info: RANDOM NUMBER SEED     1743686760
Info: USE HYDROGEN BONDS?    NO
Info: Using AMBER format force field!
Info: AMBER PARM FILE        mobley_2489709.prmtop
Info: COORDINATE PDB         mobley_2489709.pdb
Info: Exclusions will be read from PARM file!
Info: SCNB (VDW SCALING)     2
Info: USING ARITHMETIC MEAN TO COMBINE L-J SIGMA PARAMETERS
Info: BINARY COORDINATES     mobley_2489709_min.coor
Info: SUMMARY OF PARAMETERS:
Info: 5 BONDS
Info: 3 ANGLES
Info:   3 HARMONIC
Info:   0 COSINE-BASED
Info: 2 DIHEDRAL
Info: 0 IMPROPER
Info: 0 CROSSTERM
Info: 0 VDW
Info: 15 VDW_PAIRS
Info: 0 NBTHOLE_PAIRS
Info: STRUCTURE SUMMARY:
Info: 2940 ATOMS
Info: 2940 BONDS
Info: 18 ANGLES
Info: 30 DIHEDRALS
Info: 0 IMPROPERS
Info: 0 CROSSTERMS
Info: 2979 EXCLUSIONS
Info: 12 FIXED ATOMS
Info: 2932 RIGID BONDS
Info: 4 RIGID BONDS BETWEEN FIXED ATOMS
Info: 5856 DEGREES OF FREEDOM
Info: 984 HYDROGEN GROUPS
Info: 3 ATOMS IN LARGEST HYDROGEN GROUP
Info: 984 MIGRATION GROUPS
Info: 3 ATOMS IN LARGEST MIGRATION GROUP
Info: 8 HYDROGEN GROUPS WITH ALL ATOMS FIXED
Info: TOTAL MASS = 17730.6 amu
Info: TOTAL CHARGE = 0.00010002 e
Info: MASS DENSITY = 0.656432 g/cm^3
Info: ATOM DENSITY = 0.0655472 atoms/A^3
Info: ADDED 0 IMPLICIT EXCLUSIONS
Info: NONBONDED TABLE R-SQUARED SPACING: 0.0625
Info: NONBONDED TABLE SIZE: 705 POINTS
Info: REMOVING COM VELOCITY 0.0196983 -0.222387 -0.0662553
TCL: Running for 100000 steps
ETITLE: TS BOND ANGLE DIHED IMPRP ELECT VDW BOUNDARY MISC KINETIC TOTAL TEMP POTENTIAL TOTAL3 TEMPAVG PRESSURE GPRESSURE VOLUME PRESSAVG GPRESSAVG
ENERGY: 0 0.0000 0.0000 0.0000 0.0000 -13592.1415 2400.6568 0.0000 0.0000 1735.5280 -9455.9567 298.2778 -11191.4847 -9455.6132 298.2778 462.0202 490.2129 44853.2003 462.0202 490.2129
ENERGY: 100000 0.0000 0.0000 0.0000 0.0000 -14153.2181 2426.2551 0.0000 0.0000 177.4691 -11549.4939 30.5009 -11726.9630 -11549.0517 30.9842 -144.6890 -115.7503 28491.5123 4.3114 4.3088
TCL: Running 100000 steps at 60 kelvin.
TCL: Setting parameter langevinTemp to 60
TCL: Running for 100000 steps
ETITLE: TS BOND ANGLE DIHED IMPRP ELECT VDW BOUNDARY MISC KINETIC TOTAL TEMP POTENTIAL TOTAL3 TEMPAVG PRESSURE GPRESSURE VOLUME PRESSAVG GPRESSAVG
ENERGY: 100000 0.0000 0.0000 0.0000 0.0000 -14153.2181 2426.2551 0.0000 0.0000 177.3835 -11549.5795 30.4861 -11726.9630 -11549.1687 30.4861 -175.9168 -115.7641 28491.5123 -175.9168 -115.7641
ENERGY: 200000 0.0000 0.0000 0.0000 0.0000 -14048.9217 2378.6218 0.0000 0.0000 345.4306 -11324.8694 59.3677 -11670.3000 -11324.1576 59.9442 -413.7506 -350.0607 28606.2375 3.2937 3.3463
TCL: Running 100000 steps at 90 kelvin.
TCL: Setting parameter langevinTemp to 90
TCL: Running for 100000 steps
ETITLE: TS BOND ANGLE DIHED IMPRP ELECT VDW BOUNDARY MISC KINETIC TOTAL TEMP POTENTIAL TOTAL3 TEMPAVG PRESSURE GPRESSURE VOLUME PRESSAVG GPRESSAVG
ENERGY: 200000 0.0000 0.0000 0.0000 0.0000 -14048.9217 2378.6218 0.0000 0.0000 345.2543 -11325.0457 59.3374 -11670.3000 -11324.2498 59.3374 -401.4987 -350.4272 28606.2375 -401.4987 -350.4272
ENERGY: 300000 0.0000 0.0000 0.0000 0.0000 -14139.9476 2561.0856 0.0000 0.0000 508.6369 -11070.2251 87.4173 -11578.8620 -11069.1656 89.8867 1415.6850 1431.4115 28421.0405 4.4465 4.5283
TCL: Running 100000 steps at 120 kelvin.
TCL: Setting parameter langevinTemp to 120
TCL: Running for 100000 steps
ETITLE: TS BOND ANGLE DIHED IMPRP ELECT VDW BOUNDARY MISC KINETIC TOTAL TEMP POTENTIAL TOTAL3 TEMPAVG PRESSURE GPRESSURE VOLUME PRESSAVG GPRESSAVG
ENERGY: 300000 0.0000 0.0000 0.0000 0.0000 -14139.9476 2561.0856 0.0000 0.0000 508.3802 -11070.4818 87.3731 -11578.8620 -11069.2629 87.3731 1393.9172 1430.9729 28421.0405 1393.9172 1430.9729
ENERGY: 400000 0.0000 0.0000 0.0000 0.0000 -13720.6067 2309.4660 0.0000 0.0000 700.0093 -10711.1314 120.3076 -11411.1407 -10709.3986 120.0337 -293.0984 -284.5253 29140.4981 4.2128 4.1482
TCL: Running 100000 steps at 150 kelvin.
TCL: Setting parameter langevinTemp to 150
TCL: Running for 100000 steps
ETITLE: TS BOND ANGLE DIHED IMPRP ELECT VDW BOUNDARY MISC KINETIC TOTAL TEMP POTENTIAL TOTAL3 TEMPAVG PRESSURE GPRESSURE VOLUME PRESSAVG GPRESSAVG
ENERGY: 400000 0.0000 0.0000 0.0000 0.0000 -13720.6067 2309.4660 0.0000 0.0000 699.6666 -10711.4741 120.2487 -11411.1407 -10709.8624 120.2487 -331.3015 -285.2916 29140.4981 -331.3015 -285.2916
ENERGY: 500000 0.0000 0.0000 0.0000 0.0000 -13476.1328 2186.6753 0.0000 0.0000 875.7152 -10413.7423 150.5054 -11289.4575 -10412.0222 149.5994 -601.5991 -550.4166 28874.8076 4.2016 4.1314
TCL: Running 100000 steps at 180 kelvin.
TCL: Setting parameter langevinTemp to 180
TCL: Running for 100000 steps
ETITLE: TS BOND ANGLE DIHED IMPRP ELECT VDW BOUNDARY MISC KINETIC TOTAL TEMP POTENTIAL TOTAL3 TEMPAVG PRESSURE GPRESSURE VOLUME PRESSAVG GPRESSAVG
ENERGY: 500000 0.0000 0.0000 0.0000 0.0000 -13476.1328 2186.6753 0.0000 0.0000 875.3027 -10414.1548 150.4345 -11289.4575 -10412.6026 150.4345 -602.2529 -550.2844 28874.8076 -602.2529 -550.2844
ENERGY: 600000 0.0000 0.0000 0.0000 0.0000 -13280.3041 2290.0291 0.0000 0.0000 1015.0943 -9975.1808 174.4599 -10990.2750 -9974.5783 179.7782 1421.5919 1486.1210 28575.5297 2.7835 2.7840
TCL: Running 100000 steps at 210 kelvin.
TCL: Setting parameter langevinTemp to 210
TCL: Running for 100000 steps
ETITLE: TS BOND ANGLE DIHED IMPRP ELECT VDW BOUNDARY MISC KINETIC TOTAL TEMP POTENTIAL TOTAL3 TEMPAVG PRESSURE GPRESSURE VOLUME PRESSAVG GPRESSAVG
ENERGY: 600000 0.0000 0.0000 0.0000 0.0000 -13280.3041 2290.0291 0.0000 0.0000 1014.5921 -9975.6830 174.3736 -10990.2750 -9973.9000 174.3736 1420.5942 1484.6857 28575.5297 1420.5942 1484.6857
ENERGY: 700000 0.0000 0.0000 0.0000 0.0000 -12353.3788 1895.6921 0.0000 0.0000 1196.7142 -9260.9725 205.6742 -10457.6868 -9258.0662 209.8614 -33.3250 65.8495 29123.4325 4.3335 4.1199
TCL: Running 100000 steps at 240 kelvin.
TCL: Setting parameter langevinTemp to 240
TCL: Running for 100000 steps
ETITLE: TS BOND ANGLE DIHED IMPRP ELECT VDW BOUNDARY MISC KINETIC TOTAL TEMP POTENTIAL TOTAL3 TEMPAVG PRESSURE GPRESSURE VOLUME PRESSAVG GPRESSAVG
ENERGY: 700000 0.0000 0.0000 0.0000 0.0000 -12353.3788 1895.6921 0.0000 0.0000 1196.0794 -9261.6074 205.5651 -10457.6868 -9259.4644 205.5651 -18.4605 66.6356 29123.4325 -18.4605 66.6356
ENERGY: 800000 0.0000 0.0000 0.0000 0.0000 -11673.8423 1638.4792 0.0000 0.0000 1416.7826 -8618.5806 243.4964 -10035.3632 -8616.4406 239.9912 -596.3738 -459.2171 29183.3961 2.3603 2.2755
TCL: Running 100000 steps at 270 kelvin.
TCL: Setting parameter langevinTemp to 270
TCL: Running for 100000 steps
ETITLE: TS BOND ANGLE DIHED IMPRP ELECT VDW BOUNDARY MISC KINETIC TOTAL TEMP POTENTIAL TOTAL3 TEMPAVG PRESSURE GPRESSURE VOLUME PRESSAVG GPRESSAVG
ENERGY: 800000 0.0000 0.0000 0.0000 0.0000 -11673.8423 1638.4792 0.0000 0.0000 1416.0731 -8619.2901 243.3744 -10035.3632 -8617.4549 243.3744 -533.7378 -460.6357 29183.3961 -533.7378 -460.6357
ENERGY: 900000 0.0000 0.0000 0.0000 0.0000 -11169.2427 1526.3254 0.0000 0.0000 1543.3189 -8099.5985 265.2436 -9642.9174 -8097.3339 269.9659 -605.1904 -493.6580 30254.1601 2.9769 3.0292
TCL: Running 1000000 steps at 300 kelvin.
TCL: Setting parameter langevinTemp to 300
TCL: Running for 1000000 steps
ETITLE: TS BOND ANGLE DIHED IMPRP ELECT VDW BOUNDARY MISC KINETIC TOTAL TEMP POTENTIAL TOTAL3 TEMPAVG PRESSURE GPRESSURE VOLUME PRESSAVG GPRESSAVG
ENERGY: 900000 0.0000 0.0000 0.0000 0.0000 -11169.2427 1526.3254 0.0000 0.0000 1542.5236 -8100.3937 265.1070 -9642.9174 -8097.5475 265.1070 -579.0366 -493.8889 30254.1601 -579.0366 -493.8889
ENERGY: 1100000 0.0000 0.0000 0.0000 0.0000 -10665.1101 1473.2677 0.0000 0.0000 1719.8532 -7471.9892 295.5838 -9191.8424 -7469.4644 299.9145 627.7537 684.3079 30079.2183 3.8753 3.7739
ENERGY: 1300000 0.0000 0.0000 0.0000 0.0000 -10649.7560 1434.9896 0.0000 0.0000 1701.7570 -7513.0095 292.4737 -9214.7664 -7510.6310 300.2408 -22.9424 64.6751 30443.8862 3.0938 3.2302
ENERGY: 1500000 0.0000 0.0000 0.0000 0.0000 -10728.6248 1521.8737 0.0000 0.0000 1762.2553 -7444.4959 302.8713 -9206.7512 -7441.1019 299.9119 545.2338 651.1957 30644.2611 1.5825 1.5397
ENERGY: 1700000 0.0000 0.0000 0.0000 0.0000 -10695.3897 1432.6287 0.0000 0.0000 1748.9431 -7513.8180 300.5834 -9262.7610 -7509.4960 300.6349 -118.8932 -38.2720 30563.1585 3.3770 3.3812
ENERGY: 1900000 0.0000 0.0000 0.0000 0.0000 -10469.1050 1274.0066 0.0000 0.0000 1779.2865 -7415.8119 305.7984 -9195.0984 -7412.1368 299.8417 -1074.9217 -1030.5542 30436.2591 3.4247 3.4003
TCL: Exiting due to exit command.
