Info: SIMULATION PARAMETERS:
Info: TIMESTEP               2
Info: NUMBER OF STEPS        0
Info: STEPS PER CYCLE        10
Info: PERIODIC CELL BASIS 1  37.435 0 0
Info: PERIODIC CELL BASIS 2  0 36.451 0
Info: PERIODIC CELL BASIS 3  0 0 31.855
Info: PERIODIC CELL CENTER   0 0 0
Info: WRAPPING WATERS AROUND PERIODIC BOUNDARIES ON OUTPUT.
Info: WRAPPING ALL CLUSTERS AROUND PERIODIC BOUNDARIES ON OUTPUT.
Info: FIRST LDB TIMESTEP     50
Info: LAST LDB TIMESTEP     -1
Info: HOM BACKGROUND SCALING 1
Info: PME BACKGROUND SCALING 1
Info: MIN ATOMS PER PATCH    40
Info: EMPTY PATCH LOAD       40 ATOMS
Info: INITIAL TEMPERATURE    300
Info: CENTER OF MASS MOVING INITIALLY? NO
Info: DIELECTRIC             1
Info: EXCLUDE                SCALED ONE-FOUR
Info: 1-4 ELECTROSTATICS SCALED BY 0.833333
Info: MODIFIED 1-4 VDW PARAMETERS WILL BE USED
Info: DCD FILENAME           mobley_6804509_equil.dcd
Info: DCD FREQUENCY          100000
Info: DCD FIRST STEP         100000
Info: DCD FILE WILL CONTAIN UNIT CELL DATA
Info: XST FILENAME           mobley_6804509_equil.xst
Info: XST FREQUENCY          100000
Info: NO VELOCITY DCD OUTPUT
Info: NO FORCE DCD OUTPUT
Info: OUTPUT FILENAME        mobley_6804509_equil
Info: BINARY OUTPUT FILES WILL BE USED
Info: RESTART FILENAME       mobley_6804509_equil.restart
Info: RESTART FREQUENCY      100000
Info: BINARY RESTART FILES WILL BE USED
Info: CUTOFF                 9
Info: PAIRLIST DISTANCE      11
Info: PAIRLIST SHRINK RATE   0.01
Info: PAIRLIST GROW RATE     0.01
Info: PAIRLIST TRIGGER       0.3
Info: PAIRLISTS PER CYCLE    2
Info: PAIRLISTS ENABLED
Info: MARGIN                 8
Info: HYDROGEN GROUP CUTOFF  2.5
Info: PATCH DIMENSION        21.5
Info: ENERGY OUTPUT STEPS    100000
Info: ENERGY EVALUATION STEPS    100000
Info: OUTPUT ENERGY PRECISION 4
Info: CROSSTERM ENERGY INCLUDED IN DIHEDRAL
Info: TIMING OUTPUT STEPS    1000000
Info: PRESSURE OUTPUT STEPS  100000
Info: FIXED ATOMS ACTIVE
Info: LANGEVIN DYNAMICS ACTIVE
Info: LANGEVIN TEMPERATURE   30
Info: LANGEVIN USING BBK INTEGRATOR
Info: LANGEVIN DAMPING COEFFICIENT IS 1 INVERSE PS
Info: LANGEVIN DYNAMICS APPLIED TO HYDROGENS
Info: LANGEVIN PISTON PRESSURE CONTROL ACTIVE
Info:        TARGET PRESSURE IS 1.01325 BAR
Info:     OSCILLATION PERIOD IS 50 FS
Info:             DECAY TIME IS 25 FS
Info:     PISTON TEMPERATURE IS 300 K
Info:       PRESSURE CONTROL IS GROUP-BASED
Info:    INITIAL STRAIN RATE IS 0 0 0
Info:       CELL FLUCTUATION IS ISOTROPIC
Info: PARTICLE MESH EWALD (PME) ACTIVE
Info: PME TOLERANCE               1e-06
Info: PME EWALD COEFFICIENT       0.348832
Info: PME INTERPOLATION ORDER     4
Info: PME GRID DIMENSIONS         40 40 32
Info: PME MAXIMUM GRID SPACING    1
Info: FULL ELECTROSTATIC EVALUATION FREQUENCY      2
Info: USING VERLET I (r-RESPA) MTS SCHEME.
Info: C1 SPLITTING OF LONG RANGE ELECTROSTATICS
Info: PLACING ATOMS IN PATCHES BY HYDROGEN GROUPS
Info: RIGID BONDS TO HYDROGEN : ALL
Info:         ERROR TOLERANCE : 1e-08
Info:          MAX ITERATIONS : 100
Info: RIGID WATER USING SETTLE ALGORITHM
Info: RANDOM NUMBER SEED     1743726969
Info: USE HYDROGEN BONDS?    NO
Info: Using AMBER format force field!
Info: AMBER PARM FILE        mobley_6804509.prmtop
Info: COORDINATE PDB         mobley_6804509.pdb
Info: Exclusions will be read from PARM file!
Info: SCNB (VDW SCALING)     2
Info: USING ARITHMETIC MEAN TO COMBINE L-J SIGMA PARAMETERS
Info: BINARY COORDINATES     mobley_6804509_min.coor
Info: SUMMARY OF PARAMETERS:
Info: 5 BONDS
Info: 3 ANGLES
Info:   3 HARMONIC
Info:   0 COSINE-BASED
Info: 2 DIHEDRAL
Info: 0 IMPROPER
Info: 0 CROSSTERM
Info: 0 VDW
Info: 15 VDW_PAIRS
Info: 0 NBTHOLE_PAIRS
Info: STRUCTURE SUMMARY:
Info: 2964 ATOMS
Info: 2964 BONDS
Info: 18 ANGLES
Info: 30 DIHEDRALS
Info: 0 IMPROPERS
Info: 0 CROSSTERMS
Info: 3003 EXCLUSIONS
Info: 12 FIXED ATOMS
Info: 2954 RIGID BONDS
Info: 2 RIGID BONDS BETWEEN FIXED ATOMS
Info: 5904 DEGREES OF FREEDOM
Info: 994 HYDROGEN GROUPS
Info: 3 ATOMS IN LARGEST HYDROGEN GROUP
Info: 994 MIGRATION GROUPS
Info: 3 ATOMS IN LARGEST MIGRATION GROUP
Info: 10 HYDROGEN GROUPS WITH ALL ATOMS FIXED
Info: TOTAL MASS = 17943.6 amu
Info: TOTAL CHARGE = -9.99942e-05 e
Info: MASS DENSITY = 0.685495 g/cm^3
Info: ATOM DENSITY = 0.0681888 atoms/A^3
Info: ADDED 0 IMPLICIT EXCLUSIONS
Info: NONBONDED TABLE R-SQUARED SPACING: 0.0625
Info: NONBONDED TABLE SIZE: 705 POINTS
Info: REMOVING COM VELOCITY -0.0220155 0.124902 0.219522
TCL: Running for 100000 steps
ETITLE: TS BOND ANGLE DIHED IMPRP ELECT VDW BOUNDARY MISC KINETIC TOTAL TEMP POTENTIAL TOTAL3 TEMPAVG PRESSURE GPRESSURE VOLUME PRESSAVG GPRESSAVG
ENERGY: 0 0.0000 0.0000 0.0000 0.0000 -13765.0935 2397.5395 0.0000 0.0000 1756.6840 -9610.8699 299.4592 -11367.5540 -9610.5255 299.4592 222.0896 250.5602 43467.5232 222.0896 250.5602
ENERGY: 100000 0.0000 0.0000 0.0000 0.0000 -14269.1634 2513.3168 0.0000 0.0000 177.3594 -11578.4872 30.2342 -11755.8466 -11577.9299 30.8286 144.0691 195.9138 29702.2550 3.1246 3.1493
TCL: Running 100000 steps at 60 kelvin.
TCL: Setting parameter langevinTemp to 60
TCL: Running for 100000 steps
ETITLE: TS BOND ANGLE DIHED IMPRP ELECT VDW BOUNDARY MISC KINETIC TOTAL TEMP POTENTIAL TOTAL3 TEMPAVG PRESSURE GPRESSURE VOLUME PRESSAVG GPRESSAVG
ENERGY: 100000 0.0000 0.0000 0.0000 0.0000 -14269.1634 2513.3168 0.0000 0.0000 177.2725 -11578.5740 30.2194 -11755.8466 -11578.1387 30.2194 135.9177 195.9385 29702.2550 135.9177 195.9385
ENERGY: 200000 0.0000 0.0000 0.0000 0.0000 -14194.2297 2448.4452 0.0000 0.0000 355.9834 -11389.8011 60.6839 -11745.7845 -11388.7455 59.9553 -72.1468 9.6604 28996.0367 5.1928 5.1137
TCL: Running 100000 steps at 90 kelvin.
TCL: Setting parameter langevinTemp to 90
TCL: Running for 100000 steps
ETITLE: TS BOND ANGLE DIHED IMPRP ELECT VDW BOUNDARY MISC KINETIC TOTAL TEMP POTENTIAL TOTAL3 TEMPAVG PRESSURE GPRESSURE VOLUME PRESSAVG GPRESSAVG
ENERGY: 200000 0.0000 0.0000 0.0000 0.0000 -14194.2297 2448.4452 0.0000 0.0000 355.8139 -11389.9706 60.6550 -11745.7845 -11389.1982 60.6550 -49.2654 9.9209 28996.0367 -49.2654 9.9209
ENERGY: 300000 0.0000 0.0000 0.0000 0.0000 -14010.4032 2368.2776 0.0000 0.0000 515.1742 -11126.9514 87.8210 -11642.1256 -11125.5443 89.9783 -366.9269 -290.7540 29131.7266 4.1620 4.2395
TCL: Running 100000 steps at 120 kelvin.
TCL: Setting parameter langevinTemp to 120
TCL: Running for 100000 steps
ETITLE: TS BOND ANGLE DIHED IMPRP ELECT VDW BOUNDARY MISC KINETIC TOTAL TEMP POTENTIAL TOTAL3 TEMPAVG PRESSURE GPRESSURE VOLUME PRESSAVG GPRESSAVG
ENERGY: 300000 0.0000 0.0000 0.0000 0.0000 -14010.4032 2368.2776 0.0000 0.0000 514.9046 -11127.2210 87.7750 -11642.1256 -11126.2206 87.7750 -355.3117 -291.2863 29131.7266 -355.3117 -291.2863
ENERGY: 400000 0.0000 0.0000 0.0000 0.0000 -13775.8077 2281.9539 0.0000 0.0000 716.2639 -10777.5899 122.1004 -11493.8538 -10775.7638 120.2392 -556.8211 -493.1648 29322.0127 4.6239 4.6399
TCL: Running 100000 steps at 150 kelvin.
TCL: Setting parameter langevinTemp to 150
TCL: Running for 100000 steps
ETITLE: TS BOND ANGLE DIHED IMPRP ELECT VDW BOUNDARY MISC KINETIC TOTAL TEMP POTENTIAL TOTAL3 TEMPAVG PRESSURE GPRESSURE VOLUME PRESSAVG GPRESSAVG
ENERGY: 400000 0.0000 0.0000 0.0000 0.0000 -13775.8077 2281.9539 0.0000 0.0000 715.9097 -10777.9441 122.0400 -11493.8538 -10776.2463 122.0400 -553.4786 -493.2361 29322.0127 -553.4786 -493.2361
ENERGY: 500000 0.0000 0.0000 0.0000 0.0000 -13546.2848 2210.2850 0.0000 0.0000 871.4596 -10464.5402 148.5564 -11335.9998 -10461.8356 150.0319 -550.3818 -477.8635 29200.5783 2.9569 2.9935
TCL: Running 100000 steps at 180 kelvin.
TCL: Setting parameter langevinTemp to 180
TCL: Running for 100000 steps
ETITLE: TS BOND ANGLE DIHED IMPRP ELECT VDW BOUNDARY MISC KINETIC TOTAL TEMP POTENTIAL TOTAL3 TEMPAVG PRESSURE GPRESSURE VOLUME PRESSAVG GPRESSAVG
ENERGY: 500000 0.0000 0.0000 0.0000 0.0000 -13546.2848 2210.2850 0.0000 0.0000 871.0243 -10464.9755 148.4822 -11335.9998 -10463.3801 148.4822 -542.6359 -476.9023 29200.5783 -542.6359 -476.9023
ENERGY: 600000 0.0000 0.0000 0.0000 0.0000 -13165.1713 2172.5419 0.0000 0.0000 1069.7313 -9922.8980 182.3555 -10992.6294 -9919.5639 179.8380 603.0253 610.3969 28996.4585 4.5083 4.5438
TCL: Running 100000 steps at 210 kelvin.
TCL: Setting parameter langevinTemp to 210
TCL: Running for 100000 steps
ETITLE: TS BOND ANGLE DIHED IMPRP ELECT VDW BOUNDARY MISC KINETIC TOTAL TEMP POTENTIAL TOTAL3 TEMPAVG PRESSURE GPRESSURE VOLUME PRESSAVG GPRESSAVG
ENERGY: 600000 0.0000 0.0000 0.0000 0.0000 -13165.1713 2172.5419 0.0000 0.0000 1069.2051 -9923.4243 182.2657 -10992.6294 -9921.5715 182.2657 544.8518 610.1061 28996.4585 544.8518 610.1061
ENERGY: 700000 0.0000 0.0000 0.0000 0.0000 -12432.2041 1894.5847 0.0000 0.0000 1240.7418 -9296.8776 211.5073 -10537.6194 -9294.1856 210.0125 124.5479 200.0833 29045.1081 2.8357 2.8978
TCL: Running 100000 steps at 240 kelvin.
TCL: Setting parameter langevinTemp to 240
TCL: Running for 100000 steps
ETITLE: TS BOND ANGLE DIHED IMPRP ELECT VDW BOUNDARY MISC KINETIC TOTAL TEMP POTENTIAL TOTAL3 TEMPAVG PRESSURE GPRESSURE VOLUME PRESSAVG GPRESSAVG
ENERGY: 700000 0.0000 0.0000 0.0000 0.0000 -12432.2041 1894.5847 0.0000 0.0000 1240.1098 -9297.5095 211.3996 -10537.6194 -9296.1975 211.3996 131.3473 199.5926 29045.1081 131.3473 199.5926
ENERGY: 800000 0.0000 0.0000 0.0000 0.0000 -11917.5004 1769.9302 0.0000 0.0000 1402.3062 -8745.2640 239.0490 -10147.5702 -8742.5281 240.0394 332.8238 446.5624 29217.8996 2.6368 2.5904
TCL: Running 100000 steps at 270 kelvin.
TCL: Setting parameter langevinTemp to 270
TCL: Running for 100000 steps
ETITLE: TS BOND ANGLE DIHED IMPRP ELECT VDW BOUNDARY MISC KINETIC TOTAL TEMP POTENTIAL TOTAL3 TEMPAVG PRESSURE GPRESSURE VOLUME PRESSAVG GPRESSAVG
ENERGY: 800000 0.0000 0.0000 0.0000 0.0000 -11917.5004 1769.9302 0.0000 0.0000 1401.6097 -8745.9605 238.9302 -10147.5702 -8743.9166 238.9302 377.4447 446.7669 29217.8996 377.4447 446.7669
ENERGY: 900000 0.0000 0.0000 0.0000 0.0000 -11251.1916 1533.2793 0.0000 0.0000 1629.5784 -8088.3340 277.7917 -9717.9123 -8087.6482 270.1628 -87.0752 -11.0784 29586.0593 3.9360 4.0153
TCL: Running 1000000 steps at 300 kelvin.
TCL: Setting parameter langevinTemp to 300
TCL: Running for 1000000 steps
ETITLE: TS BOND ANGLE DIHED IMPRP ELECT VDW BOUNDARY MISC KINETIC TOTAL TEMP POTENTIAL TOTAL3 TEMPAVG PRESSURE GPRESSURE VOLUME PRESSAVG GPRESSAVG
ENERGY: 900000 0.0000 0.0000 0.0000 0.0000 -11251.1916 1533.2793 0.0000 0.0000 1628.7992 -8089.1132 277.6589 -9717.9123 -8086.6736 277.6589 -110.7434 -13.8773 29586.0593 -110.7434 -13.8773
ENERGY: 1100000 0.0000 0.0000 0.0000 0.0000 -10797.5072 1465.2567 0.0000 0.0000 1792.0668 -7540.1837 305.4909 -9332.2505 -7538.2980 300.0927 317.6662 367.4802 30445.1518 3.1271 3.1367
ENERGY: 1300000 0.0000 0.0000 0.0000 0.0000 -10820.6456 1477.4563 0.0000 0.0000 1802.1004 -7541.0890 307.2013 -9343.1894 -7536.2082 300.5257 201.7607 231.3010 30779.9734 2.4303 2.1678
ENERGY: 1500000 0.0000 0.0000 0.0000 0.0000 -10679.4009 1353.5968 0.0000 0.0000 1793.0374 -7532.7666 305.6563 -9325.8040 -7528.2777 300.6019 -460.3586 -371.4471 30308.6986 2.0615 2.0808
ENERGY: 1700000 0.0000 0.0000 0.0000 0.0000 -10856.1562 1552.1083 0.0000 0.0000 1785.6280 -7518.4198 304.3933 -9304.0479 -7516.0171 300.1189 1069.2581 1135.6934 30398.2515 2.9644 2.9401
ENERGY: 1900000 0.0000 0.0000 0.0000 0.0000 -10787.3702 1485.1398 0.0000 0.0000 1721.7024 -7580.5280 293.4960 -9302.2304 -7576.6815 300.7370 376.0456 454.6253 30690.8620 3.8942 3.7374
TCL: Exiting due to exit command.
