Info: SIMULATION PARAMETERS:
Info: TIMESTEP               2
Info: NUMBER OF STEPS        0
Info: STEPS PER CYCLE        10
Info: PERIODIC CELL BASIS 1  36.592 0 0
Info: PERIODIC CELL BASIS 2  0 34.26 0
Info: PERIODIC CELL BASIS 3  0 0 34.471
Info: PERIODIC CELL CENTER   0 0 0
Info: WRAPPING WATERS AROUND PERIODIC BOUNDARIES ON OUTPUT.
Info: WRAPPING ALL CLUSTERS AROUND PERIODIC BOUNDARIES ON OUTPUT.
Info: FIRST LDB TIMESTEP     50
Info: LAST LDB TIMESTEP     -1
Info: HOM BACKGROUND SCALING 1
Info: PME BACKGROUND SCALING 1
Info: MIN ATOMS PER PATCH    40
Info: EMPTY PATCH LOAD       40 ATOMS
Info: INITIAL TEMPERATURE    300
Info: CENTER OF MASS MOVING INITIALLY? NO
Info: DIELECTRIC             1
Info: EXCLUDE                SCALED ONE-FOUR
Info: 1-4 ELECTROSTATICS SCALED BY 0.833333
Info: MODIFIED 1-4 VDW PARAMETERS WILL BE USED
Info: DCD FILENAME           mobley_2068538_equil.dcd
Info: DCD FREQUENCY          100000
Info: DCD FIRST STEP         100000
Info: DCD FILE WILL CONTAIN UNIT CELL DATA
Info: XST FILENAME           mobley_2068538_equil.xst
Info: XST FREQUENCY          100000
Info: NO VELOCITY DCD OUTPUT
Info: NO FORCE DCD OUTPUT
Info: OUTPUT FILENAME        mobley_2068538_equil
Info: BINARY OUTPUT FILES WILL BE USED
Info: RESTART FILENAME       mobley_2068538_equil.restart
Info: RESTART FREQUENCY      100000
Info: BINARY RESTART FILES WILL BE USED
Info: CUTOFF                 9
Info: PAIRLIST DISTANCE      11
Info: PAIRLIST SHRINK RATE   0.01
Info: PAIRLIST GROW RATE     0.01
Info: PAIRLIST TRIGGER       0.3
Info: PAIRLISTS PER CYCLE    2
Info: PAIRLISTS ENABLED
Info: MARGIN                 8
Info: HYDROGEN GROUP CUTOFF  2.5
Info: PATCH DIMENSION        21.5
Info: ENERGY OUTPUT STEPS    100000
Info: ENERGY EVALUATION STEPS    100000
Info: OUTPUT ENERGY PRECISION 4
Info: CROSSTERM ENERGY INCLUDED IN DIHEDRAL
Info: TIMING OUTPUT STEPS    1000000
Info: PRESSURE OUTPUT STEPS  100000
Info: FIXED ATOMS ACTIVE
Info: LANGEVIN DYNAMICS ACTIVE
Info: LANGEVIN TEMPERATURE   30
Info: LANGEVIN USING BBK INTEGRATOR
Info: LANGEVIN DAMPING COEFFICIENT IS 1 INVERSE PS
Info: LANGEVIN DYNAMICS APPLIED TO HYDROGENS
Info: LANGEVIN PISTON PRESSURE CONTROL ACTIVE
Info:        TARGET PRESSURE IS 1.01325 BAR
Info:     OSCILLATION PERIOD IS 50 FS
Info:             DECAY TIME IS 25 FS
Info:     PISTON TEMPERATURE IS 300 K
Info:       PRESSURE CONTROL IS GROUP-BASED
Info:    INITIAL STRAIN RATE IS 0 0 0
Info:       CELL FLUCTUATION IS ISOTROPIC
Info: PARTICLE MESH EWALD (PME) ACTIVE
Info: PME TOLERANCE               1e-06
Info: PME EWALD COEFFICIENT       0.348832
Info: PME INTERPOLATION ORDER     4
Info: PME GRID DIMENSIONS         40 36 36
Info: PME MAXIMUM GRID SPACING    1
Info: FULL ELECTROSTATIC EVALUATION FREQUENCY      2
Info: USING VERLET I (r-RESPA) MTS SCHEME.
Info: C1 SPLITTING OF LONG RANGE ELECTROSTATICS
Info: PLACING ATOMS IN PATCHES BY HYDROGEN GROUPS
Info: RIGID BONDS TO HYDROGEN : ALL
Info:         ERROR TOLERANCE : 1e-08
Info:          MAX ITERATIONS : 100
Info: RIGID WATER USING SETTLE ALGORITHM
Info: RANDOM NUMBER SEED     1743683882
Info: USE HYDROGEN BONDS?    NO
Info: Using AMBER format force field!
Info: AMBER PARM FILE        mobley_2068538.prmtop
Info: COORDINATE PDB         mobley_2068538.pdb
Info: Exclusions will be read from PARM file!
Info: SCNB (VDW SCALING)     2
Info: USING ARITHMETIC MEAN TO COMBINE L-J SIGMA PARAMETERS
Info: BINARY COORDINATES     mobley_2068538_min.coor
Info: SUMMARY OF PARAMETERS:
Info: 4 BONDS
Info: 3 ANGLES
Info: 2 DIHEDRAL
Info: 0 IMPROPER
Info: 0 CROSSTERM
Info: 0 VDW
Info: 10 VDW_PAIRS
Info: 0 NBTHOLE_PAIRS
Info: STRUCTURE SUMMARY:
Info: 2936 ATOMS
Info: 2935 BONDS
Info: 18 ANGLES
Info: 18 DIHEDRALS
Info: 0 IMPROPERS
Info: 0 CROSSTERMS
Info: 2971 EXCLUSIONS
Info: 11 FIXED ATOMS
Info: 2933 RIGID BONDS
Info: 8 RIGID BONDS BETWEEN FIXED ATOMS
Info: 5850 DEGREES OF FREEDOM
Info: 978 HYDROGEN GROUPS
Info: 4 ATOMS IN LARGEST HYDROGEN GROUP
Info: 978 MIGRATION GROUPS
Info: 4 ATOMS IN LARGEST MIGRATION GROUP
Info: 3 HYDROGEN GROUPS WITH ALL ATOMS FIXED
Info: TOTAL MASS = 17609.7 amu
Info: TOTAL CHARGE = 0.000200011 e
Info: MASS DENSITY = 0.676681 g/cm^3
Info: ATOM DENSITY = 0.0679405 atoms/A^3
Info: ADDED 0 IMPLICIT EXCLUSIONS
Info: NONBONDED TABLE R-SQUARED SPACING: 0.0625
Info: NONBONDED TABLE SIZE: 705 POINTS
Info: REMOVING COM VELOCITY 0.0836978 -0.296417 0.114551
TCL: Running for 100000 steps
ETITLE: TS BOND ANGLE DIHED IMPRP ELECT VDW BOUNDARY MISC KINETIC TOTAL TEMP POTENTIAL TOTAL3 TEMPAVG PRESSURE GPRESSURE VOLUME PRESSAVG GPRESSAVG
ENERGY: 0 0.0000 0.0000 0.0000 0.0000 -13621.4218 2384.8246 0.0000 0.0000 1789.8859 -9446.7113 307.9356 -11236.5972 -9446.3530 307.9356 315.2184 346.4696 43214.2906 315.2184 346.4696
ENERGY: 100000 0.0000 0.0000 0.0000 0.0000 -14163.3611 2445.8777 0.0000 0.0000 173.1158 -11544.3676 29.7832 -11717.4834 -11543.7385 30.9309 -386.0513 -351.7455 29163.4474 5.0730 5.0757
TCL: Running 100000 steps at 60 kelvin.
TCL: Setting parameter langevinTemp to 60
TCL: Running for 100000 steps
ETITLE: TS BOND ANGLE DIHED IMPRP ELECT VDW BOUNDARY MISC KINETIC TOTAL TEMP POTENTIAL TOTAL3 TEMPAVG PRESSURE GPRESSURE VOLUME PRESSAVG GPRESSAVG
ENERGY: 100000 0.0000 0.0000 0.0000 0.0000 -14163.3611 2445.8777 0.0000 0.0000 173.0244 -11544.4590 29.7675 -11717.4834 -11544.0708 29.7675 -405.8018 -351.5550 29163.4474 -405.8018 -351.5550
ENERGY: 200000 0.0000 0.0000 0.0000 0.0000 -14098.7990 2470.8545 0.0000 0.0000 342.4483 -11285.4962 58.9155 -11627.9444 -11285.1553 59.9423 238.0188 257.8937 28969.6604 3.5362 3.4682
TCL: Running 100000 steps at 90 kelvin.
TCL: Setting parameter langevinTemp to 90
TCL: Running for 100000 steps
ETITLE: TS BOND ANGLE DIHED IMPRP ELECT VDW BOUNDARY MISC KINETIC TOTAL TEMP POTENTIAL TOTAL3 TEMPAVG PRESSURE GPRESSURE VOLUME PRESSAVG GPRESSAVG
ENERGY: 200000 0.0000 0.0000 0.0000 0.0000 -14098.7990 2470.8545 0.0000 0.0000 342.2736 -11285.6708 58.8854 -11627.9445 -11285.0335 58.8854 200.6907 257.7767 28969.6604 200.6907 257.7767
ENERGY: 300000 0.0000 0.0000 0.0000 0.0000 -13865.5277 2351.9225 0.0000 0.0000 530.5539 -10983.0514 91.2776 -11513.6053 -10981.5418 90.1009 -401.9715 -366.6953 29120.9032 4.0526 4.0591
TCL: Running 100000 steps at 120 kelvin.
TCL: Setting parameter langevinTemp to 120
TCL: Running for 100000 steps
ETITLE: TS BOND ANGLE DIHED IMPRP ELECT VDW BOUNDARY MISC KINETIC TOTAL TEMP POTENTIAL TOTAL3 TEMPAVG PRESSURE GPRESSURE VOLUME PRESSAVG GPRESSAVG
ENERGY: 300000 0.0000 0.0000 0.0000 0.0000 -13865.5277 2351.9225 0.0000 0.0000 530.3000 -10983.3053 91.2339 -11513.6053 -10982.3738 91.2339 -419.4266 -366.3576 29120.9032 -419.4266 -366.3576
ENERGY: 400000 0.0000 0.0000 0.0000 0.0000 -13697.8246 2298.7537 0.0000 0.0000 720.1900 -10678.8808 123.9029 -11399.0709 -10677.1289 120.2037 -407.8585 -335.2278 29246.8055 4.0809 4.0319
TCL: Running 100000 steps at 150 kelvin.
TCL: Setting parameter langevinTemp to 150
TCL: Running for 100000 steps
ETITLE: TS BOND ANGLE DIHED IMPRP ELECT VDW BOUNDARY MISC KINETIC TOTAL TEMP POTENTIAL TOTAL3 TEMPAVG PRESSURE GPRESSURE VOLUME PRESSAVG GPRESSAVG
ENERGY: 400000 0.0000 0.0000 0.0000 0.0000 -13697.8246 2298.7537 0.0000 0.0000 719.8312 -10679.2397 123.8412 -11399.0709 -10677.7312 123.8412 -382.6511 -334.9027 29246.8055 -382.6511 -334.9027
ENERGY: 500000 0.0000 0.0000 0.0000 0.0000 -13463.8282 2259.3098 0.0000 0.0000 868.3206 -10336.1978 149.3876 -11204.5184 -10333.3021 150.3261 190.6568 193.4245 28802.2546 4.6989 4.6667
TCL: Running 100000 steps at 180 kelvin.
TCL: Setting parameter langevinTemp to 180
TCL: Running for 100000 steps
ETITLE: TS BOND ANGLE DIHED IMPRP ELECT VDW BOUNDARY MISC KINETIC TOTAL TEMP POTENTIAL TOTAL3 TEMPAVG PRESSURE GPRESSURE VOLUME PRESSAVG GPRESSAVG
ENERGY: 500000 0.0000 0.0000 0.0000 0.0000 -13463.8282 2259.3098 0.0000 0.0000 867.8843 -10336.6341 149.3126 -11204.5184 -10335.0750 149.3126 153.9992 194.0536 28802.2546 153.9992 194.0536
ENERGY: 600000 0.0000 0.0000 0.0000 0.0000 -13036.9517 2117.3151 0.0000 0.0000 1052.3637 -9867.2729 181.0508 -10919.6367 -9865.6102 179.8383 -87.6027 16.9060 28890.7380 4.1570 4.2131
TCL: Running 100000 steps at 210 kelvin.
TCL: Setting parameter langevinTemp to 210
TCL: Running for 100000 steps
ETITLE: TS BOND ANGLE DIHED IMPRP ELECT VDW BOUNDARY MISC KINETIC TOTAL TEMP POTENTIAL TOTAL3 TEMPAVG PRESSURE GPRESSURE VOLUME PRESSAVG GPRESSAVG
ENERGY: 600000 0.0000 0.0000 0.0000 0.0000 -13036.9517 2117.3151 0.0000 0.0000 1051.8541 -9867.7826 180.9631 -10919.6367 -9865.7775 180.9631 -47.2293 17.0375 28890.7380 -47.2293 17.0375
ENERGY: 700000 0.0000 0.0000 0.0000 0.0000 -12397.1360 1925.6692 0.0000 0.0000 1212.6367 -9258.8302 208.6245 -10471.4668 -9257.2900 209.7714 344.4777 507.4834 28478.0998 4.5040 4.4255
TCL: Running 100000 steps at 240 kelvin.
TCL: Setting parameter langevinTemp to 240
TCL: Running for 100000 steps
ETITLE: TS BOND ANGLE DIHED IMPRP ELECT VDW BOUNDARY MISC KINETIC TOTAL TEMP POTENTIAL TOTAL3 TEMPAVG PRESSURE GPRESSURE VOLUME PRESSAVG GPRESSAVG
ENERGY: 700000 0.0000 0.0000 0.0000 0.0000 -12397.1360 1925.6692 0.0000 0.0000 1212.0186 -9259.4482 208.5181 -10471.4668 -9257.5627 208.5181 434.1284 507.1053 28478.0998 434.1284 507.1053
ENERGY: 800000 0.0000 0.0000 0.0000 0.0000 -11624.0102 1652.3244 0.0000 0.0000 1448.0469 -8523.6390 249.1249 -9971.6859 -8520.2745 239.6160 -326.4951 -276.7038 29233.4701 2.7414 2.7665
TCL: Running 100000 steps at 270 kelvin.
TCL: Setting parameter langevinTemp to 270
TCL: Running for 100000 steps
ETITLE: TS BOND ANGLE DIHED IMPRP ELECT VDW BOUNDARY MISC KINETIC TOTAL TEMP POTENTIAL TOTAL3 TEMPAVG PRESSURE GPRESSURE VOLUME PRESSAVG GPRESSAVG
ENERGY: 800000 0.0000 0.0000 0.0000 0.0000 -11624.0102 1652.3244 0.0000 0.0000 1447.3727 -8524.3132 249.0089 -9971.6859 -8521.7799 249.0089 -348.0428 -277.1798 29233.4701 -348.0428 -277.1798
ENERGY: 900000 0.0000 0.0000 0.0000 0.0000 -11159.5338 1527.8288 0.0000 0.0000 1597.7643 -8033.9408 274.8826 -9631.7051 -8030.6710 269.9238 -355.6065 -269.2963 29450.5526 4.1036 4.1426
TCL: Running 1000000 steps at 300 kelvin.
TCL: Setting parameter langevinTemp to 300
TCL: Running for 1000000 steps
ETITLE: TS BOND ANGLE DIHED IMPRP ELECT VDW BOUNDARY MISC KINETIC TOTAL TEMP POTENTIAL TOTAL3 TEMPAVG PRESSURE GPRESSURE VOLUME PRESSAVG GPRESSAVG
ENERGY: 900000 0.0000 0.0000 0.0000 0.0000 -11159.5338 1527.8288 0.0000 0.0000 1596.9814 -8034.7237 274.7479 -9631.7051 -8032.1214 274.7479 -352.3840 -268.5106 29450.5526 -352.3840 -268.5106
ENERGY: 1100000 0.0000 0.0000 0.0000 0.0000 -10648.9717 1415.7794 0.0000 0.0000 1774.4108 -7458.7816 305.2732 -9233.1923 -7456.0923 299.9579 -302.8403 -270.9569 30625.3273 3.7636 3.7933
ENERGY: 1300000 0.0000 0.0000 0.0000 0.0000 -10574.7316 1451.0863 0.0000 0.0000 1702.2777 -7421.3676 292.8633 -9123.6453 -7421.1618 300.4924 178.4608 261.0178 30583.6743 2.9474 2.7429
ENERGY: 1500000 0.0000 0.0000 0.0000 0.0000 -10488.9066 1349.4312 0.0000 0.0000 1788.4028 -7351.0726 307.6804 -9139.4754 -7347.2604 300.1790 -452.9073 -406.8749 30472.2279 3.3821 3.6222
ENERGY: 1700000 0.0000 0.0000 0.0000 0.0000 -10721.5797 1487.2913 0.0000 0.0000 1722.6183 -7511.6701 296.3627 -9234.2884 -7508.8591 299.2433 301.5761 379.2495 30223.7861 2.8631 2.7109
ENERGY: 1900000 0.0000 0.0000 0.0000 0.0000 -10599.9875 1396.7785 0.0000 0.0000 1707.4147 -7495.7943 293.7471 -9203.2090 -7492.8378 300.3405 -130.6465 -4.7213 29834.9444 4.6475 4.6692
TCL: Exiting due to exit command.
