Info: SIMULATION PARAMETERS:
Info: TIMESTEP               2
Info: NUMBER OF STEPS        0
Info: STEPS PER CYCLE        10
Info: PERIODIC CELL BASIS 1  37.968 0 0
Info: PERIODIC CELL BASIS 2  0 35.779 0
Info: PERIODIC CELL BASIS 3  0 0 31.855
Info: PERIODIC CELL CENTER   0 0 0
Info: WRAPPING WATERS AROUND PERIODIC BOUNDARIES ON OUTPUT.
Info: WRAPPING ALL CLUSTERS AROUND PERIODIC BOUNDARIES ON OUTPUT.
Info: FIRST LDB TIMESTEP     50
Info: LAST LDB TIMESTEP     -1
Info: HOM BACKGROUND SCALING 1
Info: PME BACKGROUND SCALING 1
Info: MIN ATOMS PER PATCH    40
Info: EMPTY PATCH LOAD       40 ATOMS
Info: INITIAL TEMPERATURE    300
Info: CENTER OF MASS MOVING INITIALLY? NO
Info: DIELECTRIC             1
Info: EXCLUDE                SCALED ONE-FOUR
Info: 1-4 ELECTROSTATICS SCALED BY 0.833333
Info: MODIFIED 1-4 VDW PARAMETERS WILL BE USED
Info: DCD FILENAME           mobley_8723116_equil.dcd
Info: DCD FREQUENCY          100000
Info: DCD FIRST STEP         100000
Info: DCD FILE WILL CONTAIN UNIT CELL DATA
Info: XST FILENAME           mobley_8723116_equil.xst
Info: XST FREQUENCY          100000
Info: NO VELOCITY DCD OUTPUT
Info: NO FORCE DCD OUTPUT
Info: OUTPUT FILENAME        mobley_8723116_equil
Info: BINARY OUTPUT FILES WILL BE USED
Info: RESTART FILENAME       mobley_8723116_equil.restart
Info: RESTART FREQUENCY      100000
Info: BINARY RESTART FILES WILL BE USED
Info: CUTOFF                 9
Info: PAIRLIST DISTANCE      11
Info: PAIRLIST SHRINK RATE   0.01
Info: PAIRLIST GROW RATE     0.01
Info: PAIRLIST TRIGGER       0.3
Info: PAIRLISTS PER CYCLE    2
Info: PAIRLISTS ENABLED
Info: MARGIN                 8
Info: HYDROGEN GROUP CUTOFF  2.5
Info: PATCH DIMENSION        21.5
Info: ENERGY OUTPUT STEPS    100000
Info: ENERGY EVALUATION STEPS    100000
Info: OUTPUT ENERGY PRECISION 4
Info: CROSSTERM ENERGY INCLUDED IN DIHEDRAL
Info: TIMING OUTPUT STEPS    1000000
Info: PRESSURE OUTPUT STEPS  100000
Info: FIXED ATOMS ACTIVE
Info: LANGEVIN DYNAMICS ACTIVE
Info: LANGEVIN TEMPERATURE   30
Info: LANGEVIN USING BBK INTEGRATOR
Info: LANGEVIN DAMPING COEFFICIENT IS 1 INVERSE PS
Info: LANGEVIN DYNAMICS APPLIED TO HYDROGENS
Info: LANGEVIN PISTON PRESSURE CONTROL ACTIVE
Info:        TARGET PRESSURE IS 1.01325 BAR
Info:     OSCILLATION PERIOD IS 50 FS
Info:             DECAY TIME IS 25 FS
Info:     PISTON TEMPERATURE IS 300 K
Info:       PRESSURE CONTROL IS GROUP-BASED
Info:    INITIAL STRAIN RATE IS 0 0 0
Info:       CELL FLUCTUATION IS ISOTROPIC
Info: PARTICLE MESH EWALD (PME) ACTIVE
Info: PME TOLERANCE               1e-06
Info: PME EWALD COEFFICIENT       0.348832
Info: PME INTERPOLATION ORDER     4
Info: PME GRID DIMENSIONS         40 36 32
Info: PME MAXIMUM GRID SPACING    1
Info: FULL ELECTROSTATIC EVALUATION FREQUENCY      2
Info: USING VERLET I (r-RESPA) MTS SCHEME.
Info: C1 SPLITTING OF LONG RANGE ELECTROSTATICS
Info: PLACING ATOMS IN PATCHES BY HYDROGEN GROUPS
Info: RIGID BONDS TO HYDROGEN : ALL
Info:         ERROR TOLERANCE : 1e-08
Info:          MAX ITERATIONS : 100
Info: RIGID WATER USING SETTLE ALGORITHM
Info: RANDOM NUMBER SEED     1743731247
Info: USE HYDROGEN BONDS?    NO
Info: Using AMBER format force field!
Info: AMBER PARM FILE        mobley_8723116.prmtop
Info: COORDINATE PDB         mobley_8723116.pdb
Info: Exclusions will be read from PARM file!
Info: SCNB (VDW SCALING)     2
Info: USING ARITHMETIC MEAN TO COMBINE L-J SIGMA PARAMETERS
Info: BINARY COORDINATES     mobley_8723116_min.coor
Info: SUMMARY OF PARAMETERS:
Info: 7 BONDS
Info: 6 ANGLES
Info:   6 HARMONIC
Info:   0 COSINE-BASED
Info: 3 DIHEDRAL
Info: 0 IMPROPER
Info: 0 CROSSTERM
Info: 0 VDW
Info: 28 VDW_PAIRS
Info: 0 NBTHOLE_PAIRS
Info: STRUCTURE SUMMARY:
Info: 2978 ATOMS
Info: 2978 BONDS
Info: 21 ANGLES
Info: 35 DIHEDRALS
Info: 0 IMPROPERS
Info: 0 CROSSTERMS
Info: 3024 EXCLUSIONS
Info: 14 FIXED ATOMS
Info: 2970 RIGID BONDS
Info: 6 RIGID BONDS BETWEEN FIXED ATOMS
Info: 5928 DEGREES OF FREEDOM
Info: 996 HYDROGEN GROUPS
Info: 3 ATOMS IN LARGEST HYDROGEN GROUP
Info: 996 MIGRATION GROUPS
Info: 3 ATOMS IN LARGEST MIGRATION GROUP
Info: 8 HYDROGEN GROUPS WITH ALL ATOMS FIXED
Info: TOTAL MASS = 17927.4 amu
Info: TOTAL CHARGE = -2.6077e-08 e
Info: MASS DENSITY = 0.687943 g/cm^3
Info: ATOM DENSITY = 0.0688179 atoms/A^3
Info: ADDED 0 IMPLICIT EXCLUSIONS
Info: NONBONDED TABLE R-SQUARED SPACING: 0.0625
Info: NONBONDED TABLE SIZE: 705 POINTS
Info: REMOVING COM VELOCITY -0.196479 -0.0279512 -0.0266632
TCL: Running for 100000 steps
ETITLE: TS BOND ANGLE DIHED IMPRP ELECT VDW BOUNDARY MISC KINETIC TOTAL TEMP POTENTIAL TOTAL3 TEMPAVG PRESSURE GPRESSURE VOLUME PRESSAVG GPRESSAVG
ENERGY: 0 0.0000 0.0000 0.0000 0.0000 -13979.0577 2410.9959 0.0000 0.0000 1787.0358 -9781.0261 303.3999 -11568.0619 -9780.6849 303.3999 205.6503 240.4267 43273.6500 205.6503 240.4267
ENERGY: 100000 0.0000 0.0000 0.0000 0.0000 -14356.8631 2493.8957 0.0000 0.0000 173.9333 -11689.0341 29.5301 -11862.9674 -11688.6209 30.8419 -59.5811 -21.2220 29913.1784 4.7796 4.7505
TCL: Running 100000 steps at 60 kelvin.
TCL: Setting parameter langevinTemp to 60
TCL: Running for 100000 steps
ETITLE: TS BOND ANGLE DIHED IMPRP ELECT VDW BOUNDARY MISC KINETIC TOTAL TEMP POTENTIAL TOTAL3 TEMPAVG PRESSURE GPRESSURE VOLUME PRESSAVG GPRESSAVG
ENERGY: 100000 0.0000 0.0000 0.0000 0.0000 -14356.8631 2493.8957 0.0000 0.0000 173.8469 -11689.1205 29.5154 -11862.9674 -11688.7223 29.5154 -76.3343 -21.3599 29913.1784 -76.3343 -21.3599
ENERGY: 200000 0.0000 0.0000 0.0000 0.0000 -14374.5504 2493.5507 0.0000 0.0000 350.8295 -11530.1703 59.5632 -11880.9997 -11529.1086 59.9975 226.9103 298.9319 28934.5522 3.8314 3.8246
TCL: Running 100000 steps at 90 kelvin.
TCL: Setting parameter langevinTemp to 90
TCL: Running for 100000 steps
ETITLE: TS BOND ANGLE DIHED IMPRP ELECT VDW BOUNDARY MISC KINETIC TOTAL TEMP POTENTIAL TOTAL3 TEMPAVG PRESSURE GPRESSURE VOLUME PRESSAVG GPRESSAVG
ENERGY: 200000 0.0000 0.0000 0.0000 0.0000 -14374.5504 2493.5507 0.0000 0.0000 350.6487 -11530.3510 59.5325 -11880.9997 -11529.5732 59.5325 234.5974 299.1219 28934.5522 234.5974 299.1219
ENERGY: 300000 0.0000 0.0000 0.0000 0.0000 -14103.4485 2318.3711 0.0000 0.0000 536.4621 -11248.6153 91.0796 -11785.0774 -11247.6334 89.9257 -865.3689 -810.7813 29196.1117 2.6852 2.7354
TCL: Running 100000 steps at 120 kelvin.
TCL: Setting parameter langevinTemp to 120
TCL: Running for 100000 steps
ETITLE: TS BOND ANGLE DIHED IMPRP ELECT VDW BOUNDARY MISC KINETIC TOTAL TEMP POTENTIAL TOTAL3 TEMPAVG PRESSURE GPRESSURE VOLUME PRESSAVG GPRESSAVG
ENERGY: 300000 0.0000 0.0000 0.0000 0.0000 -14103.4485 2318.3711 0.0000 0.0000 536.1915 -11248.8858 91.0337 -11785.0774 -11247.7635 91.0337 -865.4940 -811.2356 29196.1117 -865.4940 -811.2356
ENERGY: 400000 0.0000 0.0000 0.0000 0.0000 -13967.9170 2360.6001 0.0000 0.0000 733.9022 -10873.4147 124.6007 -11607.3169 -10871.2079 119.9687 47.3556 94.4540 29128.8361 4.5875 4.5618
TCL: Running 100000 steps at 150 kelvin.
TCL: Setting parameter langevinTemp to 150
TCL: Running for 100000 steps
ETITLE: TS BOND ANGLE DIHED IMPRP ELECT VDW BOUNDARY MISC KINETIC TOTAL TEMP POTENTIAL TOTAL3 TEMPAVG PRESSURE GPRESSURE VOLUME PRESSAVG GPRESSAVG
ENERGY: 400000 0.0000 0.0000 0.0000 0.0000 -13967.9170 2360.6001 0.0000 0.0000 733.5535 -10873.7634 124.5415 -11607.3169 -10872.3929 124.5415 40.4010 94.4288 29128.8361 40.4010 94.4288
ENERGY: 500000 0.0000 0.0000 0.0000 0.0000 -13857.4393 2353.7809 0.0000 0.0000 893.3687 -10610.2897 151.6746 -11503.6583 -10608.1196 150.1491 464.6506 486.0992 29270.4548 2.5787 2.5568
TCL: Running 100000 steps at 180 kelvin.
TCL: Setting parameter langevinTemp to 180
TCL: Running for 100000 steps
ETITLE: TS BOND ANGLE DIHED IMPRP ELECT VDW BOUNDARY MISC KINETIC TOTAL TEMP POTENTIAL TOTAL3 TEMPAVG PRESSURE GPRESSURE VOLUME PRESSAVG GPRESSAVG
ENERGY: 500000 0.0000 0.0000 0.0000 0.0000 -13857.4393 2353.7809 0.0000 0.0000 892.9209 -10610.7375 151.5986 -11503.6583 -10608.7812 151.5986 430.2775 486.4277 29270.4548 430.2775 486.4277
ENERGY: 600000 0.0000 0.0000 0.0000 0.0000 -13340.3012 2091.3629 0.0000 0.0000 1091.5865 -10157.3518 185.3277 -11248.9383 -10154.3894 179.9849 -933.3132 -822.1472 29769.2880 3.6769 3.4678
TCL: Running 100000 steps at 210 kelvin.
TCL: Setting parameter langevinTemp to 210
TCL: Running for 100000 steps
ETITLE: TS BOND ANGLE DIHED IMPRP ELECT VDW BOUNDARY MISC KINETIC TOTAL TEMP POTENTIAL TOTAL3 TEMPAVG PRESSURE GPRESSURE VOLUME PRESSAVG GPRESSAVG
ENERGY: 600000 0.0000 0.0000 0.0000 0.0000 -13340.3012 2091.3629 0.0000 0.0000 1091.0700 -10157.8683 185.2400 -11248.9383 -10155.7695 185.2400 -889.2627 -821.8429 29769.2880 -889.2627 -821.8429
ENERGY: 700000 0.0000 0.0000 0.0000 0.0000 -12614.7522 1947.6239 0.0000 0.0000 1220.0059 -9447.1225 207.1305 -10667.1284 -9444.5614 209.7581 691.0342 749.4474 28662.2762 3.7922 3.7502
TCL: Running 100000 steps at 240 kelvin.
TCL: Setting parameter langevinTemp to 240
TCL: Running for 100000 steps
ETITLE: TS BOND ANGLE DIHED IMPRP ELECT VDW BOUNDARY MISC KINETIC TOTAL TEMP POTENTIAL TOTAL3 TEMPAVG PRESSURE GPRESSURE VOLUME PRESSAVG GPRESSAVG
ENERGY: 700000 0.0000 0.0000 0.0000 0.0000 -12614.7522 1947.6239 0.0000 0.0000 1219.3938 -9447.7346 207.0266 -10667.1284 -9445.5040 207.0266 668.6632 749.0771 28662.2762 668.6632 749.0771
ENERGY: 800000 0.0000 0.0000 0.0000 0.0000 -11958.1185 1708.2074 0.0000 0.0000 1410.8979 -8839.0132 239.5398 -10249.9111 -8837.1123 240.1816 -335.3372 -210.4482 29480.3984 2.3257 2.3180
TCL: Running 100000 steps at 270 kelvin.
TCL: Setting parameter langevinTemp to 270
TCL: Running for 100000 steps
ETITLE: TS BOND ANGLE DIHED IMPRP ELECT VDW BOUNDARY MISC KINETIC TOTAL TEMP POTENTIAL TOTAL3 TEMPAVG PRESSURE GPRESSURE VOLUME PRESSAVG GPRESSAVG
ENERGY: 800000 0.0000 0.0000 0.0000 0.0000 -11958.1185 1708.2074 0.0000 0.0000 1410.1726 -8839.7384 239.4167 -10249.9111 -8837.7042 239.4167 -301.9137 -209.3857 29480.3984 -301.9137 -209.3857
ENERGY: 900000 0.0000 0.0000 0.0000 0.0000 -11362.3942 1574.7421 0.0000 0.0000 1623.1161 -8164.5361 275.5699 -9787.6522 -8162.5727 270.0031 78.6789 200.0327 29885.7373 4.1779 4.1213
TCL: Running 1000000 steps at 300 kelvin.
TCL: Setting parameter langevinTemp to 300
TCL: Running for 1000000 steps
ETITLE: TS BOND ANGLE DIHED IMPRP ELECT VDW BOUNDARY MISC KINETIC TOTAL TEMP POTENTIAL TOTAL3 TEMPAVG PRESSURE GPRESSURE VOLUME PRESSAVG GPRESSAVG
ENERGY: 900000 0.0000 0.0000 0.0000 0.0000 -11362.3942 1574.7421 0.0000 0.0000 1622.3486 -8165.3035 275.4396 -9787.6522 -8163.1814 275.4396 124.3106 197.3829 29885.7373 124.3106 197.3829
ENERGY: 1100000 0.0000 0.0000 0.0000 0.0000 -10726.5919 1346.9630 0.0000 0.0000 1718.2469 -7661.3820 291.7210 -9379.6289 -7658.4779 300.5877 -647.6829 -673.7591 31062.7590 3.1654 3.2658
ENERGY: 1300000 0.0000 0.0000 0.0000 0.0000 -10752.6829 1374.9977 0.0000 0.0000 1759.4217 -7618.2635 298.7116 -9377.6852 -7613.9836 300.1940 -535.6453 -444.9747 30955.4615 3.6005 3.5299
ENERGY: 1500000 0.0000 0.0000 0.0000 0.0000 -10765.2333 1428.5140 0.0000 0.0000 1786.0117 -7550.7076 303.2260 -9336.7193 -7549.1498 299.7667 5.8768 18.6087 30938.6293 3.4202 3.5127
ENERGY: 1700000 0.0000 0.0000 0.0000 0.0000 -10903.9256 1451.5150 0.0000 0.0000 1752.7486 -7699.6621 297.5787 -9452.4107 -7695.4047 299.9934 -259.8576 -155.5215 31182.8484 5.0500 4.7835
ENERGY: 1900000 0.0000 0.0000 0.0000 0.0000 -10933.7602 1471.9509 0.0000 0.0000 1797.1870 -7664.6223 305.1234 -9461.8093 -7659.4773 300.3389 -32.2408 41.5464 30811.6434 3.4324 3.4829
TCL: Exiting due to exit command.
