Info: SIMULATION PARAMETERS:
Info: TIMESTEP               2
Info: NUMBER OF STEPS        0
Info: STEPS PER CYCLE        10
Info: PERIODIC CELL BASIS 1  37.968 0 0
Info: PERIODIC CELL BASIS 2  0 34.26 0
Info: PERIODIC CELL BASIS 3  0 0 33.876
Info: PERIODIC CELL CENTER   0 0 0
Info: WRAPPING WATERS AROUND PERIODIC BOUNDARIES ON OUTPUT.
Info: WRAPPING ALL CLUSTERS AROUND PERIODIC BOUNDARIES ON OUTPUT.
Info: FIRST LDB TIMESTEP     50
Info: LAST LDB TIMESTEP     -1
Info: HOM BACKGROUND SCALING 1
Info: PME BACKGROUND SCALING 1
Info: MIN ATOMS PER PATCH    40
Info: EMPTY PATCH LOAD       40 ATOMS
Info: INITIAL TEMPERATURE    300
Info: CENTER OF MASS MOVING INITIALLY? NO
Info: DIELECTRIC             1
Info: EXCLUDE                SCALED ONE-FOUR
Info: 1-4 ELECTROSTATICS SCALED BY 0.833333
Info: MODIFIED 1-4 VDW PARAMETERS WILL BE USED
Info: DCD FILENAME           mobley_6973347_equil.dcd
Info: DCD FREQUENCY          100000
Info: DCD FIRST STEP         100000
Info: DCD FILE WILL CONTAIN UNIT CELL DATA
Info: XST FILENAME           mobley_6973347_equil.xst
Info: XST FREQUENCY          100000
Info: NO VELOCITY DCD OUTPUT
Info: NO FORCE DCD OUTPUT
Info: OUTPUT FILENAME        mobley_6973347_equil
Info: BINARY OUTPUT FILES WILL BE USED
Info: RESTART FILENAME       mobley_6973347_equil.restart
Info: RESTART FREQUENCY      100000
Info: BINARY RESTART FILES WILL BE USED
Info: CUTOFF                 9
Info: PAIRLIST DISTANCE      11
Info: PAIRLIST SHRINK RATE   0.01
Info: PAIRLIST GROW RATE     0.01
Info: PAIRLIST TRIGGER       0.3
Info: PAIRLISTS PER CYCLE    2
Info: PAIRLISTS ENABLED
Info: MARGIN                 8
Info: HYDROGEN GROUP CUTOFF  2.5
Info: PATCH DIMENSION        21.5
Info: ENERGY OUTPUT STEPS    100000
Info: ENERGY EVALUATION STEPS    100000
Info: OUTPUT ENERGY PRECISION 4
Info: CROSSTERM ENERGY INCLUDED IN DIHEDRAL
Info: TIMING OUTPUT STEPS    1000000
Info: PRESSURE OUTPUT STEPS  100000
Info: FIXED ATOMS ACTIVE
Info: LANGEVIN DYNAMICS ACTIVE
Info: LANGEVIN TEMPERATURE   30
Info: LANGEVIN USING BBK INTEGRATOR
Info: LANGEVIN DAMPING COEFFICIENT IS 1 INVERSE PS
Info: LANGEVIN DYNAMICS APPLIED TO HYDROGENS
Info: LANGEVIN PISTON PRESSURE CONTROL ACTIVE
Info:        TARGET PRESSURE IS 1.01325 BAR
Info:     OSCILLATION PERIOD IS 50 FS
Info:             DECAY TIME IS 25 FS
Info:     PISTON TEMPERATURE IS 300 K
Info:       PRESSURE CONTROL IS GROUP-BASED
Info:    INITIAL STRAIN RATE IS 0 0 0
Info:       CELL FLUCTUATION IS ISOTROPIC
Info: PARTICLE MESH EWALD (PME) ACTIVE
Info: PME TOLERANCE               1e-06
Info: PME EWALD COEFFICIENT       0.348832
Info: PME INTERPOLATION ORDER     4
Info: PME GRID DIMENSIONS         40 36 36
Info: PME MAXIMUM GRID SPACING    1
Info: FULL ELECTROSTATIC EVALUATION FREQUENCY      2
Info: USING VERLET I (r-RESPA) MTS SCHEME.
Info: C1 SPLITTING OF LONG RANGE ELECTROSTATICS
Info: PLACING ATOMS IN PATCHES BY HYDROGEN GROUPS
Info: RIGID BONDS TO HYDROGEN : ALL
Info:         ERROR TOLERANCE : 1e-08
Info:          MAX ITERATIONS : 100
Info: RIGID WATER USING SETTLE ALGORITHM
Info: RANDOM NUMBER SEED     1744088945
Info: USE HYDROGEN BONDS?    NO
Info: Using AMBER format force field!
Info: AMBER PARM FILE        mobley_6973347.prmtop
Info: COORDINATE PDB         mobley_6973347.pdb
Info: Exclusions will be read from PARM file!
Info: SCNB (VDW SCALING)     2
Info: USING ARITHMETIC MEAN TO COMBINE L-J SIGMA PARAMETERS
Info: BINARY COORDINATES     mobley_6973347_min.coor
Info: SUMMARY OF PARAMETERS:
Info: 9 BONDS
Info: 11 ANGLES
Info:   11 HARMONIC
Info:   0 COSINE-BASED
Info: 15 DIHEDRAL
Info: 0 IMPROPER
Info: 0 CROSSTERM
Info: 0 VDW
Info: 36 VDW_PAIRS
Info: 0 NBTHOLE_PAIRS
Info: STRUCTURE SUMMARY:
Info: 2963 ATOMS
Info: 2962 BONDS
Info: 22 ANGLES
Info: 34 DIHEDRALS
Info: 0 IMPROPERS
Info: 0 CROSSTERMS
Info: 3004 EXCLUSIONS
Info: 14 FIXED ATOMS
Info: 2957 RIGID BONDS
Info: 8 RIGID BONDS BETWEEN FIXED ATOMS
Info: 5898 DEGREES OF FREEDOM
Info: 989 HYDROGEN GROUPS
Info: 4 ATOMS IN LARGEST HYDROGEN GROUP
Info: 989 MIGRATION GROUPS
Info: 4 ATOMS IN LARGEST MIGRATION GROUP
Info: 6 HYDROGEN GROUPS WITH ALL ATOMS FIXED
Info: TOTAL MASS = 17797.8 amu
Info: TOTAL CHARGE = 0.000100005 e
Info: MASS DENSITY = 0.670701 g/cm^3
Info: ATOM DENSITY = 0.067241 atoms/A^3
Info: ADDED 0 IMPLICIT EXCLUSIONS
Info: NONBONDED TABLE R-SQUARED SPACING: 0.0625
Info: NONBONDED TABLE SIZE: 705 POINTS
Info: REMOVING COM VELOCITY 0.0188579 0.19215 0.0204635
TCL: Running for 100000 steps
ETITLE: TS BOND ANGLE DIHED IMPRP ELECT VDW BOUNDARY MISC KINETIC TOTAL TEMP POTENTIAL TOTAL3 TEMPAVG PRESSURE GPRESSURE VOLUME PRESSAVG GPRESSAVG
ENERGY: 0 0.0000 0.0000 0.0000 0.0000 -13788.8198 2418.4562 0.0000 0.0000 1797.2055 -9573.1582 306.6785 -11370.3637 -9572.8079 306.6785 544.9025 577.2613 44065.3479 544.9025 577.2613
ENERGY: 100000 0.0000 0.0000 0.0000 0.0000 -14311.2894 2472.1659 0.0000 0.0000 176.2545 -11662.8691 30.0764 -11839.1235 -11662.6843 30.9762 153.6854 202.6979 28757.9023 5.0964 5.1243
TCL: Running 100000 steps at 60 kelvin.
TCL: Setting parameter langevinTemp to 60
TCL: Running for 100000 steps
ETITLE: TS BOND ANGLE DIHED IMPRP ELECT VDW BOUNDARY MISC KINETIC TOTAL TEMP POTENTIAL TOTAL3 TEMPAVG PRESSURE GPRESSURE VOLUME PRESSAVG GPRESSAVG
ENERGY: 100000 0.0000 0.0000 0.0000 0.0000 -14311.2894 2472.1659 0.0000 0.0000 176.1668 -11662.9567 30.0614 -11839.1235 -11662.5369 30.0614 146.6307 202.3794 28757.9023 146.6307 202.3794
ENERGY: 200000 0.0000 0.0000 0.0000 0.0000 -14228.1196 2448.2577 0.0000 0.0000 349.3036 -11430.5583 59.6058 -11779.8619 -11429.9964 59.9521 270.8400 333.9775 28486.0152 4.8265 4.7660
TCL: Running 100000 steps at 90 kelvin.
TCL: Setting parameter langevinTemp to 90
TCL: Running for 100000 steps
ETITLE: TS BOND ANGLE DIHED IMPRP ELECT VDW BOUNDARY MISC KINETIC TOTAL TEMP POTENTIAL TOTAL3 TEMPAVG PRESSURE GPRESSURE VOLUME PRESSAVG GPRESSAVG
ENERGY: 200000 0.0000 0.0000 0.0000 0.0000 -14228.1196 2448.2577 0.0000 0.0000 349.1247 -11430.7371 59.5753 -11779.8619 -11430.1900 59.5753 284.8753 333.6589 28486.0152 284.8753 333.6589
ENERGY: 300000 0.0000 0.0000 0.0000 0.0000 -13981.0378 2305.5723 0.0000 0.0000 528.7890 -11146.6765 90.2335 -11675.4655 -11145.6621 89.8813 -528.4388 -425.4159 28644.6598 3.4274 3.4446
TCL: Running 100000 steps at 120 kelvin.
TCL: Setting parameter langevinTemp to 120
TCL: Running for 100000 steps
ETITLE: TS BOND ANGLE DIHED IMPRP ELECT VDW BOUNDARY MISC KINETIC TOTAL TEMP POTENTIAL TOTAL3 TEMPAVG PRESSURE GPRESSURE VOLUME PRESSAVG GPRESSAVG
ENERGY: 300000 0.0000 0.0000 0.0000 0.0000 -13981.0378 2305.5723 0.0000 0.0000 528.5241 -11146.9414 90.1883 -11675.4655 -11145.7674 90.1883 -480.7663 -425.8848 28644.6598 -480.7663 -425.8848
ENERGY: 400000 0.0000 0.0000 0.0000 0.0000 -13920.4502 2409.5237 0.0000 0.0000 703.0543 -10807.8722 119.9705 -11510.9265 -10806.1042 120.0088 638.5180 732.6877 28973.9987 4.9786 5.0244
TCL: Running 100000 steps at 150 kelvin.
TCL: Setting parameter langevinTemp to 150
TCL: Running for 100000 steps
ETITLE: TS BOND ANGLE DIHED IMPRP ELECT VDW BOUNDARY MISC KINETIC TOTAL TEMP POTENTIAL TOTAL3 TEMPAVG PRESSURE GPRESSURE VOLUME PRESSAVG GPRESSAVG
ENERGY: 400000 0.0000 0.0000 0.0000 0.0000 -13920.4502 2409.5237 0.0000 0.0000 702.7002 -10808.2263 119.9101 -11510.9265 -10807.0356 119.9101 682.7700 733.1870 28973.9987 682.7700 733.1870
ENERGY: 500000 0.0000 0.0000 0.0000 0.0000 -13628.0757 2237.7799 0.0000 0.0000 879.0383 -10511.2574 150.0007 -11390.2958 -10508.5842 149.4400 -252.4569 -207.5984 29112.6721 3.9036 3.9694
TCL: Running 100000 steps at 180 kelvin.
TCL: Setting parameter langevinTemp to 180
TCL: Running for 100000 steps
ETITLE: TS BOND ANGLE DIHED IMPRP ELECT VDW BOUNDARY MISC KINETIC TOTAL TEMP POTENTIAL TOTAL3 TEMPAVG PRESSURE GPRESSURE VOLUME PRESSAVG GPRESSAVG
ENERGY: 500000 0.0000 0.0000 0.0000 0.0000 -13628.0757 2237.7799 0.0000 0.0000 878.6003 -10511.6954 149.9260 -11390.2958 -10510.1325 149.9260 -272.3593 -207.0165 29112.6721 -272.3593 -207.0165
ENERGY: 600000 0.0000 0.0000 0.0000 0.0000 -13218.9255 2158.1751 0.0000 0.0000 1064.3741 -9996.3763 181.6268 -11060.7504 -9994.3710 180.0397 665.3938 733.1870 28473.5368 1.8320 1.5903
TCL: Running 100000 steps at 210 kelvin.
TCL: Setting parameter langevinTemp to 210
TCL: Running for 100000 steps
ETITLE: TS BOND ANGLE DIHED IMPRP ELECT VDW BOUNDARY MISC KINETIC TOTAL TEMP POTENTIAL TOTAL3 TEMPAVG PRESSURE GPRESSURE VOLUME PRESSAVG GPRESSAVG
ENERGY: 600000 0.0000 0.0000 0.0000 0.0000 -13218.9255 2158.1751 0.0000 0.0000 1063.8195 -9996.9309 181.5321 -11060.7504 -9995.3647 181.5321 663.3897 733.2112 28473.5368 663.3897 733.2112
ENERGY: 700000 0.0000 0.0000 0.0000 0.0000 -12592.8742 1963.4924 0.0000 0.0000 1264.1643 -9365.2175 215.7194 -10629.3818 -9362.9472 210.3098 636.4387 713.4156 28602.4939 4.4260 4.2674
TCL: Running 100000 steps at 240 kelvin.
TCL: Setting parameter langevinTemp to 240
TCL: Running for 100000 steps
ETITLE: TS BOND ANGLE DIHED IMPRP ELECT VDW BOUNDARY MISC KINETIC TOTAL TEMP POTENTIAL TOTAL3 TEMPAVG PRESSURE GPRESSURE VOLUME PRESSAVG GPRESSAVG
ENERGY: 700000 0.0000 0.0000 0.0000 0.0000 -12592.8742 1963.4924 0.0000 0.0000 1263.5161 -9365.8657 215.6088 -10629.3818 -9363.8351 215.6088 641.7516 714.3715 28602.4939 641.7516 714.3715
ENERGY: 800000 0.0000 0.0000 0.0000 0.0000 -11960.1476 1742.8782 0.0000 0.0000 1385.9606 -8831.3088 236.5029 -10217.2694 -8828.0801 239.9082 -87.4020 32.5754 29208.9461 3.2240 3.2552
TCL: Running 100000 steps at 270 kelvin.
TCL: Setting parameter langevinTemp to 270
TCL: Running for 100000 steps
ETITLE: TS BOND ANGLE DIHED IMPRP ELECT VDW BOUNDARY MISC KINETIC TOTAL TEMP POTENTIAL TOTAL3 TEMPAVG PRESSURE GPRESSURE VOLUME PRESSAVG GPRESSAVG
ENERGY: 800000 0.0000 0.0000 0.0000 0.0000 -11960.1476 1742.8782 0.0000 0.0000 1385.2648 -8832.0046 236.3842 -10217.2694 -8830.0789 236.3842 -52.0994 33.8093 29208.9461 -52.0994 33.8093
ENERGY: 900000 0.0000 0.0000 0.0000 0.0000 -11304.6337 1555.7868 0.0000 0.0000 1593.0837 -8155.7633 271.8468 -9748.8470 -8152.0101 270.2913 -186.7771 -110.4082 29779.5225 3.4962 3.4857
TCL: Running 1000000 steps at 300 kelvin.
TCL: Setting parameter langevinTemp to 300
TCL: Running for 1000000 steps
ETITLE: TS BOND ANGLE DIHED IMPRP ELECT VDW BOUNDARY MISC KINETIC TOTAL TEMP POTENTIAL TOTAL3 TEMPAVG PRESSURE GPRESSURE VOLUME PRESSAVG GPRESSAVG
ENERGY: 900000 0.0000 0.0000 0.0000 0.0000 -11304.6337 1555.7868 0.0000 0.0000 1592.2951 -8156.5519 271.7122 -9748.8470 -8154.3911 271.7122 -200.3445 -110.1853 29779.5225 -200.3445 -110.1853
ENERGY: 1100000 0.0000 0.0000 0.0000 0.0000 -10805.7583 1435.8664 0.0000 0.0000 1731.5567 -7638.3352 295.4761 -9369.8919 -7635.4778 300.8918 -253.2459 -151.0652 30691.9944 2.7982 2.7031
ENERGY: 1300000 0.0000 0.0000 0.0000 0.0000 -10692.6086 1376.8870 0.0000 0.0000 1790.6520 -7525.0696 305.5602 -9315.7216 -7522.9129 300.4935 -388.2917 -302.2910 30728.2645 3.2275 3.0876
ENERGY: 1500000 0.0000 0.0000 0.0000 0.0000 -10742.6613 1364.1254 0.0000 0.0000 1769.0971 -7609.4389 301.8820 -9378.5359 -7603.7862 299.8320 -688.3651 -623.8399 30666.5124 3.5146 3.4127
ENERGY: 1700000 0.0000 0.0000 0.0000 0.0000 -10896.2130 1529.1662 0.0000 0.0000 1783.0280 -7584.0188 304.2592 -9367.0467 -7580.1656 300.1867 1018.4001 1104.8115 29840.8038 2.4703 2.6912
ENERGY: 1900000 0.0000 0.0000 0.0000 0.0000 -10745.7590 1386.5636 0.0000 0.0000 1736.7665 -7622.4288 296.3651 -9359.1954 -7618.9146 300.0400 -754.9249 -653.4076 31018.2473 4.2224 4.1725
TCL: Exiting due to exit command.
