Info: SIMULATION PARAMETERS:
Info: TIMESTEP               2
Info: NUMBER OF STEPS        0
Info: STEPS PER CYCLE        10
Info: PERIODIC CELL BASIS 1  36.592 0 0
Info: PERIODIC CELL BASIS 2  0 34.696 0
Info: PERIODIC CELL BASIS 3  0 0 34.68
Info: PERIODIC CELL CENTER   0 0 0
Info: WRAPPING WATERS AROUND PERIODIC BOUNDARIES ON OUTPUT.
Info: WRAPPING ALL CLUSTERS AROUND PERIODIC BOUNDARIES ON OUTPUT.
Info: FIRST LDB TIMESTEP     50
Info: LAST LDB TIMESTEP     -1
Info: HOM BACKGROUND SCALING 1
Info: PME BACKGROUND SCALING 1
Info: MIN ATOMS PER PATCH    40
Info: EMPTY PATCH LOAD       40 ATOMS
Info: INITIAL TEMPERATURE    300
Info: CENTER OF MASS MOVING INITIALLY? NO
Info: DIELECTRIC             1
Info: EXCLUDE                SCALED ONE-FOUR
Info: 1-4 ELECTROSTATICS SCALED BY 0.833333
Info: MODIFIED 1-4 VDW PARAMETERS WILL BE USED
Info: DCD FILENAME           mobley_8983100_equil.dcd
Info: DCD FREQUENCY          100000
Info: DCD FIRST STEP         100000
Info: DCD FILE WILL CONTAIN UNIT CELL DATA
Info: XST FILENAME           mobley_8983100_equil.xst
Info: XST FREQUENCY          100000
Info: NO VELOCITY DCD OUTPUT
Info: NO FORCE DCD OUTPUT
Info: OUTPUT FILENAME        mobley_8983100_equil
Info: BINARY OUTPUT FILES WILL BE USED
Info: RESTART FILENAME       mobley_8983100_equil.restart
Info: RESTART FREQUENCY      100000
Info: BINARY RESTART FILES WILL BE USED
Info: CUTOFF                 9
Info: PAIRLIST DISTANCE      11
Info: PAIRLIST SHRINK RATE   0.01
Info: PAIRLIST GROW RATE     0.01
Info: PAIRLIST TRIGGER       0.3
Info: PAIRLISTS PER CYCLE    2
Info: PAIRLISTS ENABLED
Info: MARGIN                 8
Info: HYDROGEN GROUP CUTOFF  2.5
Info: PATCH DIMENSION        21.5
Info: ENERGY OUTPUT STEPS    100000
Info: ENERGY EVALUATION STEPS    100000
Info: OUTPUT ENERGY PRECISION 4
Info: CROSSTERM ENERGY INCLUDED IN DIHEDRAL
Info: TIMING OUTPUT STEPS    1000000
Info: PRESSURE OUTPUT STEPS  100000
Info: FIXED ATOMS ACTIVE
Info: LANGEVIN DYNAMICS ACTIVE
Info: LANGEVIN TEMPERATURE   30
Info: LANGEVIN USING BBK INTEGRATOR
Info: LANGEVIN DAMPING COEFFICIENT IS 1 INVERSE PS
Info: LANGEVIN DYNAMICS APPLIED TO HYDROGENS
Info: LANGEVIN PISTON PRESSURE CONTROL ACTIVE
Info:        TARGET PRESSURE IS 1.01325 BAR
Info:     OSCILLATION PERIOD IS 50 FS
Info:             DECAY TIME IS 25 FS
Info:     PISTON TEMPERATURE IS 300 K
Info:       PRESSURE CONTROL IS GROUP-BASED
Info:    INITIAL STRAIN RATE IS 0 0 0
Info:       CELL FLUCTUATION IS ISOTROPIC
Info: PARTICLE MESH EWALD (PME) ACTIVE
Info: PME TOLERANCE               1e-06
Info: PME EWALD COEFFICIENT       0.348832
Info: PME INTERPOLATION ORDER     4
Info: PME GRID DIMENSIONS         40 36 36
Info: PME MAXIMUM GRID SPACING    1
Info: FULL ELECTROSTATIC EVALUATION FREQUENCY      2
Info: USING VERLET I (r-RESPA) MTS SCHEME.
Info: C1 SPLITTING OF LONG RANGE ELECTROSTATICS
Info: PLACING ATOMS IN PATCHES BY HYDROGEN GROUPS
Info: RIGID BONDS TO HYDROGEN : ALL
Info:         ERROR TOLERANCE : 1e-08
Info:          MAX ITERATIONS : 100
Info: RIGID WATER USING SETTLE ALGORITHM
Info: RANDOM NUMBER SEED     1743678922
Info: USE HYDROGEN BONDS?    NO
Info: Using AMBER format force field!
Info: AMBER PARM FILE        mobley_8983100.prmtop
Info: COORDINATE PDB         mobley_8983100.pdb
Info: Exclusions will be read from PARM file!
Info: SCNB (VDW SCALING)     2
Info: USING ARITHMETIC MEAN TO COMBINE L-J SIGMA PARAMETERS
Info: BINARY COORDINATES     mobley_8983100_min.coor
Info: SUMMARY OF PARAMETERS:
Info: 4 BONDS
Info: 2 ANGLES
Info:   2 HARMONIC
Info:   0 COSINE-BASED
Info: 0 DIHEDRAL
Info: 0 IMPROPER
Info: 0 CROSSTERM
Info: 0 VDW
Info: 15 VDW_PAIRS
Info: 0 NBTHOLE_PAIRS
Info: STRUCTURE SUMMARY:
Info: 2930 ATOMS
Info: 2929 BONDS
Info: 6 ANGLES
Info: 0 DIHEDRALS
Info: 0 IMPROPERS
Info: 0 CROSSTERMS
Info: 2935 EXCLUSIONS
Info: 5 FIXED ATOMS
Info: 2928 RIGID BONDS
Info: 3 RIGID BONDS BETWEEN FIXED ATOMS
Info: 5850 DEGREES OF FREEDOM
Info: 977 HYDROGEN GROUPS
Info: 4 ATOMS IN LARGEST HYDROGEN GROUP
Info: 977 MIGRATION GROUPS
Info: 4 ATOMS IN LARGEST MIGRATION GROUP
Info: 2 HYDROGEN GROUPS WITH ALL ATOMS FIXED
Info: TOTAL MASS = 17660.5 amu
Info: TOTAL CHARGE = 3.72529e-09 e
Info: MASS DENSITY = 0.666068 g/cm^3
Info: ATOM DENSITY = 0.0665462 atoms/A^3
Info: ADDED 0 IMPLICIT EXCLUSIONS
Info: NONBONDED TABLE R-SQUARED SPACING: 0.0625
Info: NONBONDED TABLE SIZE: 705 POINTS
Info: REMOVING COM VELOCITY -0.0812273 0.0581717 0.0283624
TCL: Running for 100000 steps
ETITLE: TS BOND ANGLE DIHED IMPRP ELECT VDW BOUNDARY MISC KINETIC TOTAL TEMP POTENTIAL TOTAL3 TEMPAVG PRESSURE GPRESSURE VOLUME PRESSAVG GPRESSAVG
ENERGY: 0 0.0000 0.0000 0.0000 0.0000 -13516.7311 2361.3821 0.0000 0.0000 1689.3289 -9466.0201 290.6356 -11155.3490 -9465.6959 290.6356 316.3881 349.3138 44029.5904 316.3881 349.3138
ENERGY: 100000 0.0000 0.0000 0.0000 0.0000 -14180.4281 2451.1752 0.0000 0.0000 178.0318 -11551.2211 30.6289 -11729.2529 -11550.7357 30.9763 -348.7508 -274.3009 28473.3650 3.8177 3.8091
TCL: Running 100000 steps at 60 kelvin.
TCL: Setting parameter langevinTemp to 60
TCL: Running for 100000 steps
ETITLE: TS BOND ANGLE DIHED IMPRP ELECT VDW BOUNDARY MISC KINETIC TOTAL TEMP POTENTIAL TOTAL3 TEMPAVG PRESSURE GPRESSURE VOLUME PRESSAVG GPRESSAVG
ENERGY: 100000 0.0000 0.0000 0.0000 0.0000 -14180.4281 2451.1752 0.0000 0.0000 177.9430 -11551.3099 30.6137 -11729.2529 -11550.8938 30.6137 -335.4854 -274.2026 28473.3650 -335.4854 -274.2026
ENERGY: 200000 0.0000 0.0000 0.0000 0.0000 -14117.3855 2466.3745 0.0000 0.0000 348.5096 -11302.5015 59.9583 -11651.0111 -11301.4967 59.9377 138.0311 154.2027 28462.5683 3.5981 3.6623
TCL: Running 100000 steps at 90 kelvin.
TCL: Setting parameter langevinTemp to 90
TCL: Running for 100000 steps
ETITLE: TS BOND ANGLE DIHED IMPRP ELECT VDW BOUNDARY MISC KINETIC TOTAL TEMP POTENTIAL TOTAL3 TEMPAVG PRESSURE GPRESSURE VOLUME PRESSAVG GPRESSAVG
ENERGY: 200000 0.0000 0.0000 0.0000 0.0000 -14117.3855 2466.3745 0.0000 0.0000 348.3371 -11302.6740 59.9286 -11651.0111 -11302.0486 59.9286 91.6598 154.3179 28462.5683 91.6598 154.3179
ENERGY: 300000 0.0000 0.0000 0.0000 0.0000 -14072.4171 2506.7025 0.0000 0.0000 535.9345 -11029.7801 92.2032 -11565.7146 -11028.2667 89.8870 1130.6549 1187.8243 28088.4797 4.0988 4.1037
TCL: Running 100000 steps at 120 kelvin.
TCL: Setting parameter langevinTemp to 120
TCL: Running for 100000 steps
ETITLE: TS BOND ANGLE DIHED IMPRP ELECT VDW BOUNDARY MISC KINETIC TOTAL TEMP POTENTIAL TOTAL3 TEMPAVG PRESSURE GPRESSURE VOLUME PRESSAVG GPRESSAVG
ENERGY: 300000 0.0000 0.0000 0.0000 0.0000 -14072.4171 2506.7025 0.0000 0.0000 535.6894 -11030.0252 92.1611 -11565.7146 -11028.9300 92.1611 1127.3339 1187.6787 28088.4797 1127.3339 1187.6787
ENERGY: 400000 0.0000 0.0000 0.0000 0.0000 -13530.7455 2147.4967 0.0000 0.0000 713.2919 -10669.9569 122.7162 -11383.2488 -10668.1416 120.0255 -1486.8067 -1427.8316 28762.7275 3.9234 3.7877
TCL: Running 100000 steps at 150 kelvin.
TCL: Setting parameter langevinTemp to 150
TCL: Running for 100000 steps
ETITLE: TS BOND ANGLE DIHED IMPRP ELECT VDW BOUNDARY MISC KINETIC TOTAL TEMP POTENTIAL TOTAL3 TEMPAVG PRESSURE GPRESSURE VOLUME PRESSAVG GPRESSAVG
ENERGY: 400000 0.0000 0.0000 0.0000 0.0000 -13530.7455 2147.4967 0.0000 0.0000 712.9262 -10670.3226 122.6533 -11383.2488 -10668.8653 122.6533 -1494.2126 -1427.2314 28762.7275 -1494.2126 -1427.2314
ENERGY: 500000 0.0000 0.0000 0.0000 0.0000 -13592.9367 2337.9372 0.0000 0.0000 858.9722 -10396.0272 147.7793 -11254.9994 -10394.9322 150.4298 557.8678 605.0029 28713.2055 4.0637 3.9739
TCL: Running 100000 steps at 180 kelvin.
TCL: Setting parameter langevinTemp to 180
TCL: Running for 100000 steps
ETITLE: TS BOND ANGLE DIHED IMPRP ELECT VDW BOUNDARY MISC KINETIC TOTAL TEMP POTENTIAL TOTAL3 TEMPAVG PRESSURE GPRESSURE VOLUME PRESSAVG GPRESSAVG
ENERGY: 500000 0.0000 0.0000 0.0000 0.0000 -13592.9367 2337.9372 0.0000 0.0000 858.5314 -10396.4680 147.7035 -11254.9994 -10395.1535 147.7035 548.2450 605.3156 28713.2055 548.2450 605.3156
ENERGY: 600000 0.0000 0.0000 0.0000 0.0000 -13056.6468 2103.6270 0.0000 0.0000 1055.6369 -9897.3829 181.6139 -10953.0198 -9894.1177 179.8651 197.6003 242.7634 28102.5118 3.0481 2.8754
TCL: Running 100000 steps at 210 kelvin.
TCL: Setting parameter langevinTemp to 210
TCL: Running for 100000 steps
ETITLE: TS BOND ANGLE DIHED IMPRP ELECT VDW BOUNDARY MISC KINETIC TOTAL TEMP POTENTIAL TOTAL3 TEMPAVG PRESSURE GPRESSURE VOLUME PRESSAVG GPRESSAVG
ENERGY: 600000 0.0000 0.0000 0.0000 0.0000 -13056.6468 2103.6270 0.0000 0.0000 1055.1157 -9897.9041 181.5242 -10953.0198 -9896.3305 181.5242 166.9863 243.0445 28102.5118 166.9863 243.0445
ENERGY: 700000 0.0000 0.0000 0.0000 0.0000 -12350.5376 1897.5582 0.0000 0.0000 1250.0808 -9202.8986 215.0664 -10452.9794 -9200.8613 209.8203 300.1073 409.2763 28272.3876 3.4794 3.5519
TCL: Running 100000 steps at 240 kelvin.
TCL: Setting parameter langevinTemp to 240
TCL: Running for 100000 steps
ETITLE: TS BOND ANGLE DIHED IMPRP ELECT VDW BOUNDARY MISC KINETIC TOTAL TEMP POTENTIAL TOTAL3 TEMPAVG PRESSURE GPRESSURE VOLUME PRESSAVG GPRESSAVG
ENERGY: 700000 0.0000 0.0000 0.0000 0.0000 -12350.5376 1897.5582 0.0000 0.0000 1249.4731 -9203.5063 214.9619 -10452.9794 -9201.8087 214.9619 320.8698 409.4209 28272.3876 320.8698 409.4209
ENERGY: 800000 0.0000 0.0000 0.0000 0.0000 -11781.2325 1735.0477 0.0000 0.0000 1383.9224 -8662.2623 238.0928 -10046.1847 -8658.7377 239.4332 271.9862 373.2438 28509.8117 2.5241 2.4680
TCL: Running 100000 steps at 270 kelvin.
TCL: Setting parameter langevinTemp to 270
TCL: Running for 100000 steps
ETITLE: TS BOND ANGLE DIHED IMPRP ELECT VDW BOUNDARY MISC KINETIC TOTAL TEMP POTENTIAL TOTAL3 TEMPAVG PRESSURE GPRESSURE VOLUME PRESSAVG GPRESSAVG
ENERGY: 800000 0.0000 0.0000 0.0000 0.0000 -11781.2325 1735.0477 0.0000 0.0000 1383.2198 -8662.9650 237.9719 -10046.1847 -8661.1314 237.9719 279.2095 374.6750 28509.8117 279.2095 374.6750
ENERGY: 900000 0.0000 0.0000 0.0000 0.0000 -11060.3835 1447.4649 0.0000 0.0000 1619.6895 -7993.2292 278.6546 -9612.9187 -7987.7093 270.1077 -762.9710 -649.1137 29377.7411 3.3592 3.4837
TCL: Running 1000000 steps at 300 kelvin.
TCL: Setting parameter langevinTemp to 300
TCL: Running for 1000000 steps
ETITLE: TS BOND ANGLE DIHED IMPRP ELECT VDW BOUNDARY MISC KINETIC TOTAL TEMP POTENTIAL TOTAL3 TEMPAVG PRESSURE GPRESSURE VOLUME PRESSAVG GPRESSAVG
ENERGY: 900000 0.0000 0.0000 0.0000 0.0000 -11060.3835 1447.4649 0.0000 0.0000 1618.9414 -7993.9772 278.5259 -9612.9187 -7990.8212 278.5259 -731.7337 -647.1344 29377.7411 -731.7337 -647.1344
ENERGY: 1100000 0.0000 0.0000 0.0000 0.0000 -10604.6358 1381.5905 0.0000 0.0000 1744.4327 -7478.6126 300.1157 -9223.0453 -7477.4668 300.5354 -448.3007 -374.8985 30371.7819 2.7049 2.7778
ENERGY: 1300000 0.0000 0.0000 0.0000 0.0000 -10623.1876 1362.0545 0.0000 0.0000 1712.1363 -7548.9968 294.5594 -9261.1331 -7545.2127 300.0975 -795.7171 -715.9647 30150.8375 2.7402 2.6633
ENERGY: 1500000 0.0000 0.0000 0.0000 0.0000 -10645.5396 1427.3251 0.0000 0.0000 1705.2450 -7512.9695 293.3738 -9218.2145 -7508.2630 299.9285 -65.0172 63.5208 30100.0544 1.9874 2.0429
ENERGY: 1700000 0.0000 0.0000 0.0000 0.0000 -10706.8547 1441.5760 0.0000 0.0000 1725.6353 -7539.6434 296.8818 -9265.2787 -7538.2207 299.9538 -136.6107 -58.8755 30257.1353 3.4235 3.3250
ENERGY: 1900000 0.0000 0.0000 0.0000 0.0000 -10743.8465 1486.3330 0.0000 0.0000 1795.0928 -7462.4208 308.8314 -9257.5136 -7458.9098 300.7802 683.4299 710.0491 29607.0515 2.7773 2.8837
TCL: Exiting due to exit command.
