Info: SIMULATION PARAMETERS:
Info: TIMESTEP               2
Info: NUMBER OF STEPS        0
Info: STEPS PER CYCLE        10
Info: PERIODIC CELL BASIS 1  36.592 0 0
Info: PERIODIC CELL BASIS 2  0 34.26 0
Info: PERIODIC CELL BASIS 3  0 0 35.723
Info: PERIODIC CELL CENTER   0 0 0
Info: WRAPPING WATERS AROUND PERIODIC BOUNDARIES ON OUTPUT.
Info: WRAPPING ALL CLUSTERS AROUND PERIODIC BOUNDARIES ON OUTPUT.
Info: FIRST LDB TIMESTEP     50
Info: LAST LDB TIMESTEP     -1
Info: HOM BACKGROUND SCALING 1
Info: PME BACKGROUND SCALING 1
Info: MIN ATOMS PER PATCH    40
Info: EMPTY PATCH LOAD       40 ATOMS
Info: INITIAL TEMPERATURE    300
Info: CENTER OF MASS MOVING INITIALLY? NO
Info: DIELECTRIC             1
Info: EXCLUDE                SCALED ONE-FOUR
Info: 1-4 ELECTROSTATICS SCALED BY 0.833333
Info: MODIFIED 1-4 VDW PARAMETERS WILL BE USED
Info: DCD FILENAME           mobley_9794857_equil.dcd
Info: DCD FREQUENCY          100000
Info: DCD FIRST STEP         100000
Info: DCD FILE WILL CONTAIN UNIT CELL DATA
Info: XST FILENAME           mobley_9794857_equil.xst
Info: XST FREQUENCY          100000
Info: NO VELOCITY DCD OUTPUT
Info: NO FORCE DCD OUTPUT
Info: OUTPUT FILENAME        mobley_9794857_equil
Info: BINARY OUTPUT FILES WILL BE USED
Info: RESTART FILENAME       mobley_9794857_equil.restart
Info: RESTART FREQUENCY      100000
Info: BINARY RESTART FILES WILL BE USED
Info: CUTOFF                 9
Info: PAIRLIST DISTANCE      11
Info: PAIRLIST SHRINK RATE   0.01
Info: PAIRLIST GROW RATE     0.01
Info: PAIRLIST TRIGGER       0.3
Info: PAIRLISTS PER CYCLE    2
Info: PAIRLISTS ENABLED
Info: MARGIN                 8
Info: HYDROGEN GROUP CUTOFF  2.5
Info: PATCH DIMENSION        21.5
Info: ENERGY OUTPUT STEPS    100000
Info: ENERGY EVALUATION STEPS    100000
Info: OUTPUT ENERGY PRECISION 4
Info: CROSSTERM ENERGY INCLUDED IN DIHEDRAL
Info: TIMING OUTPUT STEPS    1000000
Info: PRESSURE OUTPUT STEPS  100000
Info: FIXED ATOMS ACTIVE
Info: LANGEVIN DYNAMICS ACTIVE
Info: LANGEVIN TEMPERATURE   30
Info: LANGEVIN USING BBK INTEGRATOR
Info: LANGEVIN DAMPING COEFFICIENT IS 1 INVERSE PS
Info: LANGEVIN DYNAMICS APPLIED TO HYDROGENS
Info: LANGEVIN PISTON PRESSURE CONTROL ACTIVE
Info:        TARGET PRESSURE IS 1.01325 BAR
Info:     OSCILLATION PERIOD IS 50 FS
Info:             DECAY TIME IS 25 FS
Info:     PISTON TEMPERATURE IS 300 K
Info:       PRESSURE CONTROL IS GROUP-BASED
Info:    INITIAL STRAIN RATE IS 0 0 0
Info:       CELL FLUCTUATION IS ISOTROPIC
Info: PARTICLE MESH EWALD (PME) ACTIVE
Info: PME TOLERANCE               1e-06
Info: PME EWALD COEFFICIENT       0.348832
Info: PME INTERPOLATION ORDER     4
Info: PME GRID DIMENSIONS         40 36 36
Info: PME MAXIMUM GRID SPACING    1
Info: FULL ELECTROSTATIC EVALUATION FREQUENCY      2
Info: USING VERLET I (r-RESPA) MTS SCHEME.
Info: C1 SPLITTING OF LONG RANGE ELECTROSTATICS
Info: PLACING ATOMS IN PATCHES BY HYDROGEN GROUPS
Info: RIGID BONDS TO HYDROGEN : ALL
Info:         ERROR TOLERANCE : 1e-08
Info:          MAX ITERATIONS : 100
Info: RIGID WATER USING SETTLE ALGORITHM
Info: RANDOM NUMBER SEED     1744677839
Info: USE HYDROGEN BONDS?    NO
Info: Using AMBER format force field!
Info: AMBER PARM FILE        mobley_9794857.prmtop
Info: COORDINATE PDB         mobley_9794857.pdb
Info: Exclusions will be read from PARM file!
Info: SCNB (VDW SCALING)     2
Info: USING ARITHMETIC MEAN TO COMBINE L-J SIGMA PARAMETERS
Info: BINARY COORDINATES     mobley_9794857_min.coor
Info: SUMMARY OF PARAMETERS:
Info: 6 BONDS
Info: 7 ANGLES
Info: 6 DIHEDRAL
Info: 0 IMPROPER
Info: 0 CROSSTERM
Info: 0 VDW
Info: 21 VDW_PAIRS
Info: 0 NBTHOLE_PAIRS
Info: STRUCTURE SUMMARY:
Info: 2970 ATOMS
Info: 2969 BONDS
Info: 31 ANGLES
Info: 45 DIHEDRALS
Info: 0 IMPROPERS
Info: 0 CROSSTERMS
Info: 3033 EXCLUSIONS
Info: 18 FIXED ATOMS
Info: 2964 RIGID BONDS
Info: 12 RIGID BONDS BETWEEN FIXED ATOMS
Info: 5904 DEGREES OF FREEDOM
Info: 990 HYDROGEN GROUPS
Info: 4 ATOMS IN LARGEST HYDROGEN GROUP
Info: 990 MIGRATION GROUPS
Info: 4 ATOMS IN LARGEST MIGRATION GROUP
Info: 6 HYDROGEN GROUPS WITH ALL ATOMS FIXED
Info: TOTAL MASS = 17815.9 amu
Info: TOTAL CHARGE = 0.000499986 e
Info: MASS DENSITY = 0.66061 g/cm^3
Info: ATOM DENSITY = 0.0663185 atoms/A^3
Info: ADDED 0 IMPLICIT EXCLUSIONS
Info: NONBONDED TABLE R-SQUARED SPACING: 0.0625
Info: NONBONDED TABLE SIZE: 705 POINTS
Info: REMOVING COM VELOCITY 0.0399054 -0.049889 -0.180783
TCL: Running for 100000 steps
ETITLE: TS BOND ANGLE DIHED IMPRP ELECT VDW BOUNDARY MISC KINETIC TOTAL TEMP POTENTIAL TOTAL3 TEMPAVG PRESSURE GPRESSURE VOLUME PRESSAVG GPRESSAVG
ENERGY: 0 0.0000 0.0000 0.0000 0.0000 -13709.0510 2379.5229 0.0000 0.0000 1750.2127 -9579.3154 298.3561 -11329.5281 -9578.9715 298.3561 247.9662 286.1073 44783.8503 247.9662 286.1073
ENERGY: 100000 0.0000 0.0000 0.0000 0.0000 -14172.0867 2429.1461 0.0000 0.0000 172.2416 -11570.6989 29.3618 -11742.9405 -11570.3677 30.8835 -598.4707 -546.4438 30821.4963 2.9878 2.9860
TCL: Running 100000 steps at 60 kelvin.
TCL: Setting parameter langevinTemp to 60
TCL: Running for 100000 steps
ETITLE: TS BOND ANGLE DIHED IMPRP ELECT VDW BOUNDARY MISC KINETIC TOTAL TEMP POTENTIAL TOTAL3 TEMPAVG PRESSURE GPRESSURE VOLUME PRESSAVG GPRESSAVG
ENERGY: 100000 0.0000 0.0000 0.0000 0.0000 -14172.0867 2429.1461 0.0000 0.0000 172.1578 -11570.7827 29.3475 -11742.9405 -11570.4464 29.3475 -610.0492 -546.4716 30821.4963 -610.0492 -546.4716
ENERGY: 200000 0.0000 0.0000 0.0000 0.0000 -14162.3959 2496.9629 0.0000 0.0000 348.7207 -11316.7123 59.4459 -11665.4330 -11315.9472 59.9303 419.6303 456.5969 30283.9280 5.2320 5.2340
TCL: Running 100000 steps at 90 kelvin.
TCL: Setting parameter langevinTemp to 90
TCL: Running for 100000 steps
ETITLE: TS BOND ANGLE DIHED IMPRP ELECT VDW BOUNDARY MISC KINETIC TOTAL TEMP POTENTIAL TOTAL3 TEMPAVG PRESSURE GPRESSURE VOLUME PRESSAVG GPRESSAVG
ENERGY: 200000 0.0000 0.0000 0.0000 0.0000 -14162.3959 2496.9629 0.0000 0.0000 348.5401 -11316.8929 59.4151 -11665.4330 -11316.2331 59.4151 409.8978 456.6023 30283.9280 409.8978 456.6023
ENERGY: 300000 0.0000 0.0000 0.0000 0.0000 -14069.4382 2452.7585 0.0000 0.0000 524.4783 -11092.2014 89.4070 -11616.6797 -11090.1711 90.0481 337.7250 379.3964 29746.6135 2.6244 2.7200
TCL: Running 100000 steps at 120 kelvin.
TCL: Setting parameter langevinTemp to 120
TCL: Running for 100000 steps
ETITLE: TS BOND ANGLE DIHED IMPRP ELECT VDW BOUNDARY MISC KINETIC TOTAL TEMP POTENTIAL TOTAL3 TEMPAVG PRESSURE GPRESSURE VOLUME PRESSAVG GPRESSAVG
ENERGY: 300000 0.0000 0.0000 0.0000 0.0000 -14069.4382 2452.7585 0.0000 0.0000 524.1987 -11092.4810 89.3593 -11616.6797 -11091.5529 89.3593 330.8984 380.0397 29746.6135 330.8984 380.0397
ENERGY: 400000 0.0000 0.0000 0.0000 0.0000 -13940.0955 2468.3438 0.0000 0.0000 702.9233 -10768.8284 119.8263 -11471.7517 -10767.4867 120.2085 1054.3986 1102.9221 29175.8526 4.3150 4.3440
TCL: Running 100000 steps at 150 kelvin.
TCL: Setting parameter langevinTemp to 150
TCL: Running for 100000 steps
ETITLE: TS BOND ANGLE DIHED IMPRP ELECT VDW BOUNDARY MISC KINETIC TOTAL TEMP POTENTIAL TOTAL3 TEMPAVG PRESSURE GPRESSURE VOLUME PRESSAVG GPRESSAVG
ENERGY: 400000 0.0000 0.0000 0.0000 0.0000 -13940.0955 2468.3438 0.0000 0.0000 702.5790 -10769.1728 119.7676 -11471.7517 -10767.7983 119.7676 1060.5784 1102.1744 29175.8526 1060.5784 1102.1744
ENERGY: 500000 0.0000 0.0000 0.0000 0.0000 -13698.9902 2285.9810 0.0000 0.0000 891.8720 -10521.1372 152.0360 -11413.0092 -10519.0132 150.0091 51.5102 118.6864 28867.2349 2.4021 2.4500
TCL: Running 100000 steps at 180 kelvin.
TCL: Setting parameter langevinTemp to 180
TCL: Running for 100000 steps
ETITLE: TS BOND ANGLE DIHED IMPRP ELECT VDW BOUNDARY MISC KINETIC TOTAL TEMP POTENTIAL TOTAL3 TEMPAVG PRESSURE GPRESSURE VOLUME PRESSAVG GPRESSAVG
ENERGY: 500000 0.0000 0.0000 0.0000 0.0000 -13698.9902 2285.9810 0.0000 0.0000 891.4170 -10521.5922 151.9585 -11413.0092 -10519.9634 151.9585 61.4469 118.6628 28867.2349 61.4469 118.6628
ENERGY: 600000 0.0000 0.0000 0.0000 0.0000 -13142.5711 2070.7801 0.0000 0.0000 1050.7997 -10020.9913 179.1282 -11071.7910 -10020.8978 179.8346 -524.1365 -429.6669 29027.0033 3.0524 3.0481
TCL: Running 100000 steps at 210 kelvin.
TCL: Setting parameter langevinTemp to 210
TCL: Running for 100000 steps
ETITLE: TS BOND ANGLE DIHED IMPRP ELECT VDW BOUNDARY MISC KINETIC TOTAL TEMP POTENTIAL TOTAL3 TEMPAVG PRESSURE GPRESSURE VOLUME PRESSAVG GPRESSAVG
ENERGY: 600000 0.0000 0.0000 0.0000 0.0000 -13142.5711 2070.7801 0.0000 0.0000 1050.2718 -10021.5192 179.0382 -11071.7910 -10019.7083 179.0382 -504.1669 -430.0604 29027.0033 -504.1669 -430.0604
ENERGY: 700000 0.0000 0.0000 0.0000 0.0000 -12482.9472 1844.1639 0.0000 0.0000 1220.6428 -9418.1405 208.0811 -10638.7833 -9414.0115 209.5070 -490.9007 -426.0332 28746.2922 2.9963 2.9183
TCL: Running 100000 steps at 240 kelvin.
TCL: Setting parameter langevinTemp to 240
TCL: Running for 100000 steps
ETITLE: TS BOND ANGLE DIHED IMPRP ELECT VDW BOUNDARY MISC KINETIC TOTAL TEMP POTENTIAL TOTAL3 TEMPAVG PRESSURE GPRESSURE VOLUME PRESSAVG GPRESSAVG
ENERGY: 700000 0.0000 0.0000 0.0000 0.0000 -12482.9472 1844.1639 0.0000 0.0000 1220.0260 -9418.7574 207.9759 -10638.7833 -9416.4561 207.9759 -505.8367 -424.9845 28746.2922 -505.8367 -424.9845
ENERGY: 800000 0.0000 0.0000 0.0000 0.0000 -11791.3572 1646.7270 0.0000 0.0000 1467.4529 -8677.1773 250.1544 -10144.6302 -8674.2033 240.4641 -279.0528 -237.3627 29061.3801 3.7629 3.7242
TCL: Running 100000 steps at 270 kelvin.
TCL: Setting parameter langevinTemp to 270
TCL: Running for 100000 steps
ETITLE: TS BOND ANGLE DIHED IMPRP ELECT VDW BOUNDARY MISC KINETIC TOTAL TEMP POTENTIAL TOTAL3 TEMPAVG PRESSURE GPRESSURE VOLUME PRESSAVG GPRESSAVG
ENERGY: 800000 0.0000 0.0000 0.0000 0.0000 -11791.3572 1646.7270 0.0000 0.0000 1466.7439 -8677.8863 250.0336 -10144.6302 -8675.8837 250.0336 -322.5907 -236.7752 29061.3801 -322.5907 -236.7752
ENERGY: 900000 0.0000 0.0000 0.0000 0.0000 -11321.0763 1603.6357 0.0000 0.0000 1556.9837 -8160.4569 265.4166 -9717.4406 -8156.8423 269.6909 348.7853 378.2250 29895.2365 4.9803 4.8324
TCL: Running 1000000 steps at 300 kelvin.
TCL: Setting parameter langevinTemp to 300
TCL: Running for 1000000 steps
ETITLE: TS BOND ANGLE DIHED IMPRP ELECT VDW BOUNDARY MISC KINETIC TOTAL TEMP POTENTIAL TOTAL3 TEMPAVG PRESSURE GPRESSURE VOLUME PRESSAVG GPRESSAVG
ENERGY: 900000 0.0000 0.0000 0.0000 0.0000 -11321.0763 1603.6357 0.0000 0.0000 1556.2166 -8161.2240 265.2859 -9717.4406 -8159.1196 265.2859 304.8371 379.3719 29895.2365 304.8371 379.3719
ENERGY: 1100000 0.0000 0.0000 0.0000 0.0000 -10798.1511 1401.4542 0.0000 0.0000 1805.4931 -7591.2039 307.7796 -9396.6969 -7585.9914 300.1484 -335.2196 -283.2160 30172.3529 4.0281 4.0807
ENERGY: 1300000 0.0000 0.0000 0.0000 0.0000 -10663.7724 1395.9726 0.0000 0.0000 1785.5394 -7482.2604 304.3782 -9267.7998 -7478.1508 300.4447 -396.7815 -331.8098 31040.6555 3.3106 3.2398
ENERGY: 1500000 0.0000 0.0000 0.0000 0.0000 -10885.7536 1532.2484 0.0000 0.0000 1730.5553 -7622.9498 295.0051 -9353.5052 -7620.4620 300.2717 837.1242 923.6026 30106.1065 3.6165 3.7897
ENERGY: 1700000 0.0000 0.0000 0.0000 0.0000 -10878.6464 1432.6811 0.0000 0.0000 1725.2337 -7720.7317 294.0979 -9445.9653 -7715.8155 300.2619 -503.1952 -389.9778 30442.6823 3.3024 3.2651
ENERGY: 1900000 0.0000 0.0000 0.0000 0.0000 -10918.5235 1578.7945 0.0000 0.0000 1755.1322 -7584.5967 299.1947 -9339.7289 -7582.0793 300.2296 921.1924 976.3379 30580.9670 3.1972 3.0127
TCL: Exiting due to exit command.
