Info: SIMULATION PARAMETERS:
Info: TIMESTEP               2
Info: NUMBER OF STEPS        0
Info: STEPS PER CYCLE        10
Info: PERIODIC CELL BASIS 1  36.592 0 0
Info: PERIODIC CELL BASIS 2  0 35.411 0
Info: PERIODIC CELL BASIS 3  0 0 34.471
Info: PERIODIC CELL CENTER   0 0 0
Info: WRAPPING WATERS AROUND PERIODIC BOUNDARIES ON OUTPUT.
Info: WRAPPING ALL CLUSTERS AROUND PERIODIC BOUNDARIES ON OUTPUT.
Info: FIRST LDB TIMESTEP     50
Info: LAST LDB TIMESTEP     -1
Info: HOM BACKGROUND SCALING 1
Info: PME BACKGROUND SCALING 1
Info: MIN ATOMS PER PATCH    40
Info: EMPTY PATCH LOAD       40 ATOMS
Info: INITIAL TEMPERATURE    300
Info: CENTER OF MASS MOVING INITIALLY? NO
Info: DIELECTRIC             1
Info: EXCLUDE                SCALED ONE-FOUR
Info: 1-4 ELECTROSTATICS SCALED BY 0.833333
Info: MODIFIED 1-4 VDW PARAMETERS WILL BE USED
Info: DCD FILENAME           mobley_9571888_equil.dcd
Info: DCD FREQUENCY          100000
Info: DCD FIRST STEP         100000
Info: DCD FILE WILL CONTAIN UNIT CELL DATA
Info: XST FILENAME           mobley_9571888_equil.xst
Info: XST FREQUENCY          100000
Info: NO VELOCITY DCD OUTPUT
Info: NO FORCE DCD OUTPUT
Info: OUTPUT FILENAME        mobley_9571888_equil
Info: BINARY OUTPUT FILES WILL BE USED
Info: RESTART FILENAME       mobley_9571888_equil.restart
Info: RESTART FREQUENCY      100000
Info: BINARY RESTART FILES WILL BE USED
Info: CUTOFF                 9
Info: PAIRLIST DISTANCE      11
Info: PAIRLIST SHRINK RATE   0.01
Info: PAIRLIST GROW RATE     0.01
Info: PAIRLIST TRIGGER       0.3
Info: PAIRLISTS PER CYCLE    2
Info: PAIRLISTS ENABLED
Info: MARGIN                 8
Info: HYDROGEN GROUP CUTOFF  2.5
Info: PATCH DIMENSION        21.5
Info: ENERGY OUTPUT STEPS    100000
Info: ENERGY EVALUATION STEPS    100000
Info: OUTPUT ENERGY PRECISION 4
Info: CROSSTERM ENERGY INCLUDED IN DIHEDRAL
Info: TIMING OUTPUT STEPS    1000000
Info: PRESSURE OUTPUT STEPS  100000
Info: FIXED ATOMS ACTIVE
Info: LANGEVIN DYNAMICS ACTIVE
Info: LANGEVIN TEMPERATURE   30
Info: LANGEVIN USING BBK INTEGRATOR
Info: LANGEVIN DAMPING COEFFICIENT IS 1 INVERSE PS
Info: LANGEVIN DYNAMICS APPLIED TO HYDROGENS
Info: LANGEVIN PISTON PRESSURE CONTROL ACTIVE
Info:        TARGET PRESSURE IS 1.01325 BAR
Info:     OSCILLATION PERIOD IS 50 FS
Info:             DECAY TIME IS 25 FS
Info:     PISTON TEMPERATURE IS 300 K
Info:       PRESSURE CONTROL IS GROUP-BASED
Info:    INITIAL STRAIN RATE IS 0 0 0
Info:       CELL FLUCTUATION IS ISOTROPIC
Info: PARTICLE MESH EWALD (PME) ACTIVE
Info: PME TOLERANCE               1e-06
Info: PME EWALD COEFFICIENT       0.348832
Info: PME INTERPOLATION ORDER     4
Info: PME GRID DIMENSIONS         40 36 36
Info: PME MAXIMUM GRID SPACING    1
Info: FULL ELECTROSTATIC EVALUATION FREQUENCY      2
Info: USING VERLET I (r-RESPA) MTS SCHEME.
Info: C1 SPLITTING OF LONG RANGE ELECTROSTATICS
Info: PLACING ATOMS IN PATCHES BY HYDROGEN GROUPS
Info: RIGID BONDS TO HYDROGEN : ALL
Info:         ERROR TOLERANCE : 1e-08
Info:          MAX ITERATIONS : 100
Info: RIGID WATER USING SETTLE ALGORITHM
Info: RANDOM NUMBER SEED     1743765249
Info: USE HYDROGEN BONDS?    NO
Info: Using AMBER format force field!
Info: AMBER PARM FILE        mobley_9571888.prmtop
Info: COORDINATE PDB         mobley_9571888.pdb
Info: Exclusions will be read from PARM file!
Info: SCNB (VDW SCALING)     2
Info: USING ARITHMETIC MEAN TO COMBINE L-J SIGMA PARAMETERS
Info: BINARY COORDINATES     mobley_9571888_min.coor
Info: SUMMARY OF PARAMETERS:
Info: 12 BONDS
Info: 16 ANGLES
Info:   16 HARMONIC
Info:   0 COSINE-BASED
Info: 15 DIHEDRAL
Info: 0 IMPROPER
Info: 0 CROSSTERM
Info: 0 VDW
Info: 55 VDW_PAIRS
Info: 0 NBTHOLE_PAIRS
Info: STRUCTURE SUMMARY:
Info: 2998 ATOMS
Info: 3000 BONDS
Info: 53 ANGLES
Info: 120 DIHEDRALS
Info: 0 IMPROPERS
Info: 0 CROSSTERMS
Info: 3130 EXCLUSIONS
Info: 25 FIXED ATOMS
Info: 2979 RIGID BONDS
Info: 6 RIGID BONDS BETWEEN FIXED ATOMS
Info: 5946 DEGREES OF FREEDOM
Info: 1010 HYDROGEN GROUPS
Info: 3 ATOMS IN LARGEST HYDROGEN GROUP
Info: 1010 MIGRATION GROUPS
Info: 3 ATOMS IN LARGEST MIGRATION GROUP
Info: 19 HYDROGEN GROUPS WITH ALL ATOMS FIXED
Info: TOTAL MASS = 18260.8 amu
Info: TOTAL CHARGE = 7.17118e-08 e
Info: MASS DENSITY = 0.678891 g/cm^3
Info: ATOM DENSITY = 0.0671202 atoms/A^3
Info: ADDED 0 IMPLICIT EXCLUSIONS
Info: NONBONDED TABLE R-SQUARED SPACING: 0.0625
Info: NONBONDED TABLE SIZE: 705 POINTS
Info: REMOVING COM VELOCITY 0.0734618 0.0570509 -0.241019
TCL: Running for 100000 steps
ETITLE: TS BOND ANGLE DIHED IMPRP ELECT VDW BOUNDARY MISC KINETIC TOTAL TEMP POTENTIAL TOTAL3 TEMPAVG PRESSURE GPRESSURE VOLUME PRESSAVG GPRESSAVG
ENERGY: 0 0.0000 0.0000 0.0000 0.0000 -13855.9704 2413.9520 0.0000 0.0000 1749.9952 -9692.0232 296.2118 -11442.0184 -9691.6720 296.2118 334.6528 367.5554 44666.1192 334.6528 367.5554
ENERGY: 100000 0.0000 0.0000 0.0000 0.0000 -14498.8807 2494.0474 0.0000 0.0000 175.3634 -11829.4700 29.6828 -12004.8334 -11828.9899 30.9036 -238.0641 -197.2437 29800.3316 5.1577 5.1051
TCL: Running 100000 steps at 60 kelvin.
TCL: Setting parameter langevinTemp to 60
TCL: Running for 100000 steps
ETITLE: TS BOND ANGLE DIHED IMPRP ELECT VDW BOUNDARY MISC KINETIC TOTAL TEMP POTENTIAL TOTAL3 TEMPAVG PRESSURE GPRESSURE VOLUME PRESSAVG GPRESSAVG
ENERGY: 100000 0.0000 0.0000 0.0000 0.0000 -14498.8807 2494.0474 0.0000 0.0000 175.2711 -11829.5622 29.6672 -12004.8334 -11829.2326 29.6672 -248.5797 -197.2503 29800.3316 -248.5797 -197.2503
ENERGY: 200000 0.0000 0.0000 0.0000 0.0000 -14437.6636 2527.0059 0.0000 0.0000 359.0428 -11551.6149 60.7731 -11910.6577 -11550.5397 59.9073 510.9122 587.8571 29489.4055 3.7400 3.7714
TCL: Running 100000 steps at 90 kelvin.
TCL: Setting parameter langevinTemp to 90
TCL: Running for 100000 steps
ETITLE: TS BOND ANGLE DIHED IMPRP ELECT VDW BOUNDARY MISC KINETIC TOTAL TEMP POTENTIAL TOTAL3 TEMPAVG PRESSURE GPRESSURE VOLUME PRESSAVG GPRESSAVG
ENERGY: 200000 0.0000 0.0000 0.0000 0.0000 -14437.6636 2527.0059 0.0000 0.0000 358.8693 -11551.7884 60.7438 -11910.6577 -11551.1777 60.7438 524.5600 588.2618 29489.4055 524.5600 588.2618
ENERGY: 300000 0.0000 0.0000 0.0000 0.0000 -14267.5056 2459.6966 0.0000 0.0000 533.3907 -11274.4183 90.2840 -11807.8090 -11273.3664 90.0209 382.8277 448.2265 29363.5347 2.8559 2.8361
TCL: Running 100000 steps at 120 kelvin.
TCL: Setting parameter langevinTemp to 120
TCL: Running for 100000 steps
ETITLE: TS BOND ANGLE DIHED IMPRP ELECT VDW BOUNDARY MISC KINETIC TOTAL TEMP POTENTIAL TOTAL3 TEMPAVG PRESSURE GPRESSURE VOLUME PRESSAVG GPRESSAVG
ENERGY: 300000 0.0000 0.0000 0.0000 0.0000 -14267.5056 2459.6966 0.0000 0.0000 533.1285 -11274.6805 90.2396 -11807.8090 -11273.6322 90.2396 388.8465 448.1088 29363.5347 388.8465 448.1088
ENERGY: 400000 0.0000 0.0000 0.0000 0.0000 -13943.6630 2246.8479 0.0000 0.0000 708.7329 -10988.0823 119.9632 -11696.8152 -10985.0870 119.8837 -1050.8739 -1021.9193 29899.9683 4.0187 3.9870
TCL: Running 100000 steps at 150 kelvin.
TCL: Setting parameter langevinTemp to 150
TCL: Running for 100000 steps
ETITLE: TS BOND ANGLE DIHED IMPRP ELECT VDW BOUNDARY MISC KINETIC TOTAL TEMP POTENTIAL TOTAL3 TEMPAVG PRESSURE GPRESSURE VOLUME PRESSAVG GPRESSAVG
ENERGY: 400000 0.0000 0.0000 0.0000 0.0000 -13943.6630 2246.8479 0.0000 0.0000 708.3795 -10988.4356 119.9034 -11696.8152 -10987.0690 119.9034 -1058.9690 -1021.0493 29899.9683 -1058.9690 -1021.0493
ENERGY: 500000 0.0000 0.0000 0.0000 0.0000 -13781.7395 2249.8868 0.0000 0.0000 895.6787 -10636.1741 151.6065 -11531.8527 -10634.2032 150.1108 -414.2174 -328.0015 29795.8277 4.0641 3.9313
TCL: Running 100000 steps at 180 kelvin.
TCL: Setting parameter langevinTemp to 180
TCL: Running for 100000 steps
ETITLE: TS BOND ANGLE DIHED IMPRP ELECT VDW BOUNDARY MISC KINETIC TOTAL TEMP POTENTIAL TOTAL3 TEMPAVG PRESSURE GPRESSURE VOLUME PRESSAVG GPRESSAVG
ENERGY: 500000 0.0000 0.0000 0.0000 0.0000 -13781.7395 2249.8868 0.0000 0.0000 895.2199 -10636.6328 151.5288 -11531.8527 -10634.5987 151.5288 -379.3222 -328.0724 29795.8277 -379.3222 -328.0724
ENERGY: 600000 0.0000 0.0000 0.0000 0.0000 -13355.3756 2116.9841 0.0000 0.0000 1066.0837 -10172.3078 180.4500 -11238.3915 -10170.0436 179.9583 -411.7540 -376.1799 29782.8005 3.5310 3.5543
TCL: Running 100000 steps at 210 kelvin.
TCL: Setting parameter langevinTemp to 210
TCL: Running for 100000 steps
ETITLE: TS BOND ANGLE DIHED IMPRP ELECT VDW BOUNDARY MISC KINETIC TOTAL TEMP POTENTIAL TOTAL3 TEMPAVG PRESSURE GPRESSURE VOLUME PRESSAVG GPRESSAVG
ENERGY: 600000 0.0000 0.0000 0.0000 0.0000 -13355.3756 2116.9841 0.0000 0.0000 1065.5665 -10172.8250 180.3624 -11238.3915 -10170.6496 180.3624 -443.0461 -376.7280 29782.8005 -443.0461 -376.7280
ENERGY: 700000 0.0000 0.0000 0.0000 0.0000 -12682.7517 1897.7456 0.0000 0.0000 1240.6576 -9544.3485 209.9991 -10785.0061 -9540.4243 209.6233 -154.3876 -59.4426 29084.2496 2.7103 2.8744
TCL: Running 100000 steps at 240 kelvin.
TCL: Setting parameter langevinTemp to 240
TCL: Running for 100000 steps
ETITLE: TS BOND ANGLE DIHED IMPRP ELECT VDW BOUNDARY MISC KINETIC TOTAL TEMP POTENTIAL TOTAL3 TEMPAVG PRESSURE GPRESSURE VOLUME PRESSAVG GPRESSAVG
ENERGY: 700000 0.0000 0.0000 0.0000 0.0000 -12682.7517 1897.7456 0.0000 0.0000 1240.0212 -9544.9848 209.8914 -10785.0061 -9542.9695 209.8914 -140.6317 -58.7233 29084.2496 -140.6317 -58.7233
ENERGY: 800000 0.0000 0.0000 0.0000 0.0000 -11980.9250 1713.4365 0.0000 0.0000 1365.7476 -8901.7410 231.1724 -10267.4886 -8900.5832 239.6578 -434.9674 -335.2957 30120.3912 3.2673 3.3596
TCL: Running 100000 steps at 270 kelvin.
TCL: Setting parameter langevinTemp to 270
TCL: Running for 100000 steps
ETITLE: TS BOND ANGLE DIHED IMPRP ELECT VDW BOUNDARY MISC KINETIC TOTAL TEMP POTENTIAL TOTAL3 TEMPAVG PRESSURE GPRESSURE VOLUME PRESSAVG GPRESSAVG
ENERGY: 800000 0.0000 0.0000 0.0000 0.0000 -11980.9250 1713.4365 0.0000 0.0000 1365.0208 -8902.4678 231.0494 -10267.4886 -8899.3133 231.0494 -415.5769 -336.0298 30120.3912 -415.5769 -336.0298
ENERGY: 900000 0.0000 0.0000 0.0000 0.0000 -11321.7960 1494.1610 0.0000 0.0000 1623.3122 -8204.3227 274.7689 -9827.6349 -8201.1371 269.8828 -588.7056 -489.7160 30244.1517 3.1894 3.2164
TCL: Running 1000000 steps at 300 kelvin.
TCL: Setting parameter langevinTemp to 300
TCL: Running for 1000000 steps
ETITLE: TS BOND ANGLE DIHED IMPRP ELECT VDW BOUNDARY MISC KINETIC TOTAL TEMP POTENTIAL TOTAL3 TEMPAVG PRESSURE GPRESSURE VOLUME PRESSAVG GPRESSAVG
ENERGY: 900000 0.0000 0.0000 0.0000 0.0000 -11321.7960 1494.1610 0.0000 0.0000 1622.5479 -8205.0870 274.6395 -9827.6349 -8202.8653 274.6395 -591.0597 -488.6742 30244.1517 -591.0597 -488.6742
ENERGY: 1100000 0.0000 0.0000 0.0000 0.0000 -10851.5945 1498.0562 0.0000 0.0000 1760.2186 -7593.3198 297.9422 -9353.5383 -7590.9917 299.7995 592.1110 667.7703 31355.8676 2.6098 2.6587
ENERGY: 1300000 0.0000 0.0000 0.0000 0.0000 -10901.1023 1407.2202 0.0000 0.0000 1809.1393 -7684.7428 306.2228 -9493.8821 -7680.1664 300.9898 -231.1200 -137.0347 30638.0830 3.4107 3.3930
ENERGY: 1500000 0.0000 0.0000 0.0000 0.0000 -10851.1306 1477.1337 0.0000 0.0000 1782.1252 -7591.8717 301.6502 -9373.9969 -7587.2487 300.1855 508.5494 650.9693 30787.2914 3.2560 3.1960
ENERGY: 1700000 0.0000 0.0000 0.0000 0.0000 -10899.9362 1410.2381 0.0000 0.0000 1756.0113 -7733.6868 297.2301 -9489.6982 -7729.0443 299.3233 -185.3551 -91.8422 30814.7993 2.5846 2.5151
ENERGY: 1900000 0.0000 0.0000 0.0000 0.0000 -11063.1624 1559.4343 0.0000 0.0000 1768.7632 -7734.9649 299.3885 -9503.7281 -7733.5136 300.0981 1062.9541 1125.4535 30520.7891 3.5962 3.5307
TCL: Exiting due to exit command.
