Info: SIMULATION PARAMETERS:
Info: TIMESTEP               2
Info: NUMBER OF STEPS        0
Info: STEPS PER CYCLE        10
Info: PERIODIC CELL BASIS 1  36.592 0 0
Info: PERIODIC CELL BASIS 2  0 35.411 0
Info: PERIODIC CELL BASIS 3  0 0 34.68
Info: PERIODIC CELL CENTER   0 0 0
Info: WRAPPING WATERS AROUND PERIODIC BOUNDARIES ON OUTPUT.
Info: WRAPPING ALL CLUSTERS AROUND PERIODIC BOUNDARIES ON OUTPUT.
Info: FIRST LDB TIMESTEP     50
Info: LAST LDB TIMESTEP     -1
Info: HOM BACKGROUND SCALING 1
Info: PME BACKGROUND SCALING 1
Info: MIN ATOMS PER PATCH    40
Info: EMPTY PATCH LOAD       40 ATOMS
Info: INITIAL TEMPERATURE    300
Info: CENTER OF MASS MOVING INITIALLY? NO
Info: DIELECTRIC             1
Info: EXCLUDE                SCALED ONE-FOUR
Info: 1-4 ELECTROSTATICS SCALED BY 0.833333
Info: MODIFIED 1-4 VDW PARAMETERS WILL BE USED
Info: DCD FILENAME           mobley_7326982_equil.dcd
Info: DCD FREQUENCY          100000
Info: DCD FIRST STEP         100000
Info: DCD FILE WILL CONTAIN UNIT CELL DATA
Info: XST FILENAME           mobley_7326982_equil.xst
Info: XST FREQUENCY          100000
Info: NO VELOCITY DCD OUTPUT
Info: NO FORCE DCD OUTPUT
Info: OUTPUT FILENAME        mobley_7326982_equil
Info: BINARY OUTPUT FILES WILL BE USED
Info: RESTART FILENAME       mobley_7326982_equil.restart
Info: RESTART FREQUENCY      100000
Info: BINARY RESTART FILES WILL BE USED
Info: CUTOFF                 9
Info: PAIRLIST DISTANCE      11
Info: PAIRLIST SHRINK RATE   0.01
Info: PAIRLIST GROW RATE     0.01
Info: PAIRLIST TRIGGER       0.3
Info: PAIRLISTS PER CYCLE    2
Info: PAIRLISTS ENABLED
Info: MARGIN                 8
Info: HYDROGEN GROUP CUTOFF  2.5
Info: PATCH DIMENSION        21.5
Info: ENERGY OUTPUT STEPS    100000
Info: ENERGY EVALUATION STEPS    100000
Info: OUTPUT ENERGY PRECISION 4
Info: CROSSTERM ENERGY INCLUDED IN DIHEDRAL
Info: TIMING OUTPUT STEPS    1000000
Info: PRESSURE OUTPUT STEPS  100000
Info: FIXED ATOMS ACTIVE
Info: LANGEVIN DYNAMICS ACTIVE
Info: LANGEVIN TEMPERATURE   30
Info: LANGEVIN USING BBK INTEGRATOR
Info: LANGEVIN DAMPING COEFFICIENT IS 1 INVERSE PS
Info: LANGEVIN DYNAMICS APPLIED TO HYDROGENS
Info: LANGEVIN PISTON PRESSURE CONTROL ACTIVE
Info:        TARGET PRESSURE IS 1.01325 BAR
Info:     OSCILLATION PERIOD IS 50 FS
Info:             DECAY TIME IS 25 FS
Info:     PISTON TEMPERATURE IS 300 K
Info:       PRESSURE CONTROL IS GROUP-BASED
Info:    INITIAL STRAIN RATE IS 0 0 0
Info:       CELL FLUCTUATION IS ISOTROPIC
Info: PARTICLE MESH EWALD (PME) ACTIVE
Info: PME TOLERANCE               1e-06
Info: PME EWALD COEFFICIENT       0.348832
Info: PME INTERPOLATION ORDER     4
Info: PME GRID DIMENSIONS         40 36 36
Info: PME MAXIMUM GRID SPACING    1
Info: FULL ELECTROSTATIC EVALUATION FREQUENCY      2
Info: USING VERLET I (r-RESPA) MTS SCHEME.
Info: C1 SPLITTING OF LONG RANGE ELECTROSTATICS
Info: PLACING ATOMS IN PATCHES BY HYDROGEN GROUPS
Info: RIGID BONDS TO HYDROGEN : ALL
Info:         ERROR TOLERANCE : 1e-08
Info:          MAX ITERATIONS : 100
Info: RIGID WATER USING SETTLE ALGORITHM
Info: RANDOM NUMBER SEED     1743726993
Info: USE HYDROGEN BONDS?    NO
Info: Using AMBER format force field!
Info: AMBER PARM FILE        mobley_7326982.prmtop
Info: COORDINATE PDB         mobley_7326982.pdb
Info: Exclusions will be read from PARM file!
Info: SCNB (VDW SCALING)     2
Info: USING ARITHMETIC MEAN TO COMBINE L-J SIGMA PARAMETERS
Info: BINARY COORDINATES     mobley_7326982_min.coor
Info: SUMMARY OF PARAMETERS:
Info: 7 BONDS
Info: 7 ANGLES
Info: 5 DIHEDRAL
Info: 0 IMPROPER
Info: 0 CROSSTERM
Info: 0 VDW
Info: 21 VDW_PAIRS
Info: 0 NBTHOLE_PAIRS
Info: STRUCTURE SUMMARY:
Info: 2970 ATOMS
Info: 2969 BONDS
Info: 19 ANGLES
Info: 29 DIHEDRALS
Info: 0 IMPROPERS
Info: 0 CROSSTERMS
Info: 3009 EXCLUSIONS
Info: 12 FIXED ATOMS
Info: 2966 RIGID BONDS
Info: 8 RIGID BONDS BETWEEN FIXED ATOMS
Info: 5916 DEGREES OF FREEDOM
Info: 990 HYDROGEN GROUPS
Info: 4 ATOMS IN LARGEST HYDROGEN GROUP
Info: 990 MIGRATION GROUPS
Info: 4 ATOMS IN LARGEST MIGRATION GROUP
Info: 4 HYDROGEN GROUPS WITH ALL ATOMS FIXED
Info: TOTAL MASS = 17823.9 amu
Info: TOTAL CHARGE = -0.000199985 e
Info: MASS DENSITY = 0.658655 g/cm^3
Info: ATOM DENSITY = 0.0660926 atoms/A^3
Info: ADDED 0 IMPLICIT EXCLUSIONS
Info: NONBONDED TABLE R-SQUARED SPACING: 0.0625
Info: NONBONDED TABLE SIZE: 705 POINTS
Info: REMOVING COM VELOCITY 0.127131 -0.169625 -0.188262
TCL: Running for 100000 steps
ETITLE: TS BOND ANGLE DIHED IMPRP ELECT VDW BOUNDARY MISC KINETIC TOTAL TEMP POTENTIAL TOTAL3 TEMPAVG PRESSURE GPRESSURE VOLUME PRESSAVG GPRESSAVG
ENERGY: 0 0.0000 0.0000 0.0000 0.0000 -13836.6552 2406.1112 0.0000 0.0000 1819.0736 -9611.4705 309.4657 -11430.5440 -9611.1276 309.4657 360.9270 395.3595 44936.9329 360.9270 395.3595
ENERGY: 100000 0.0000 0.0000 0.0000 0.0000 -14172.0238 2389.1996 0.0000 0.0000 177.6376 -11605.1866 30.2202 -11782.8242 -11604.4484 30.9069 -743.0685 -695.5043 30582.4620 4.2444 4.2141
TCL: Running 100000 steps at 60 kelvin.
TCL: Setting parameter langevinTemp to 60
TCL: Running for 100000 steps
ETITLE: TS BOND ANGLE DIHED IMPRP ELECT VDW BOUNDARY MISC KINETIC TOTAL TEMP POTENTIAL TOTAL3 TEMPAVG PRESSURE GPRESSURE VOLUME PRESSAVG GPRESSAVG
ENERGY: 100000 0.0000 0.0000 0.0000 0.0000 -14172.0238 2389.1996 0.0000 0.0000 177.5509 -11605.2733 30.2054 -11782.8242 -11604.8668 30.2054 -744.7664 -695.3328 30582.4620 -744.7664 -695.3328
ENERGY: 200000 0.0000 0.0000 0.0000 0.0000 -14151.9482 2384.7899 0.0000 0.0000 353.9320 -11413.2263 60.2119 -11767.1584 -11412.3097 59.9705 -600.2416 -529.3271 29695.0334 3.8370 3.7590
TCL: Running 100000 steps at 90 kelvin.
TCL: Setting parameter langevinTemp to 90
TCL: Running for 100000 steps
ETITLE: TS BOND ANGLE DIHED IMPRP ELECT VDW BOUNDARY MISC KINETIC TOTAL TEMP POTENTIAL TOTAL3 TEMPAVG PRESSURE GPRESSURE VOLUME PRESSAVG GPRESSAVG
ENERGY: 200000 0.0000 0.0000 0.0000 0.0000 -14151.9482 2384.7899 0.0000 0.0000 353.7603 -11413.3981 60.1826 -11767.1584 -11412.6423 60.1826 -579.3343 -529.3373 29695.0334 -579.3343 -529.3373
ENERGY: 300000 0.0000 0.0000 0.0000 0.0000 -14097.1296 2416.3527 0.0000 0.0000 544.7190 -11136.0579 92.6691 -11680.7769 -11134.8103 89.9487 35.4396 88.3057 29381.9635 5.1855 5.0772
TCL: Running 100000 steps at 120 kelvin.
TCL: Setting parameter langevinTemp to 120
TCL: Running for 100000 steps
ETITLE: TS BOND ANGLE DIHED IMPRP ELECT VDW BOUNDARY MISC KINETIC TOTAL TEMP POTENTIAL TOTAL3 TEMPAVG PRESSURE GPRESSURE VOLUME PRESSAVG GPRESSAVG
ENERGY: 300000 0.0000 0.0000 0.0000 0.0000 -14097.1296 2416.3527 0.0000 0.0000 544.4518 -11136.3251 92.6236 -11680.7769 -11135.4657 92.6236 35.0056 88.4009 29381.9635 35.0056 88.4009
ENERGY: 400000 0.0000 0.0000 0.0000 0.0000 -13908.5151 2340.9588 0.0000 0.0000 703.8933 -10863.6630 119.7482 -11567.5563 -10861.9563 119.9340 -211.8574 -146.3765 29451.2498 4.3858 4.3315
TCL: Running 100000 steps at 150 kelvin.
TCL: Setting parameter langevinTemp to 150
TCL: Running for 100000 steps
ETITLE: TS BOND ANGLE DIHED IMPRP ELECT VDW BOUNDARY MISC KINETIC TOTAL TEMP POTENTIAL TOTAL3 TEMPAVG PRESSURE GPRESSURE VOLUME PRESSAVG GPRESSAVG
ENERGY: 400000 0.0000 0.0000 0.0000 0.0000 -13908.5151 2340.9588 0.0000 0.0000 703.5359 -10864.0205 119.6874 -11567.5563 -10862.6788 119.6874 -201.7895 -146.1502 29451.2498 -201.7895 -146.1502
ENERGY: 500000 0.0000 0.0000 0.0000 0.0000 -13786.9237 2371.7664 0.0000 0.0000 873.4775 -10541.6797 148.5983 -11415.1572 -10539.9575 150.0269 561.5127 647.8949 29289.5420 3.7982 3.8119
TCL: Running 100000 steps at 180 kelvin.
TCL: Setting parameter langevinTemp to 180
TCL: Running for 100000 steps
ETITLE: TS BOND ANGLE DIHED IMPRP ELECT VDW BOUNDARY MISC KINETIC TOTAL TEMP POTENTIAL TOTAL3 TEMPAVG PRESSURE GPRESSURE VOLUME PRESSAVG GPRESSAVG
ENERGY: 500000 0.0000 0.0000 0.0000 0.0000 -13786.9237 2371.7664 0.0000 0.0000 873.0350 -10542.1222 148.5231 -11415.1572 -10540.4685 148.5231 573.9101 648.0374 29289.5420 573.9101 648.0374
ENERGY: 600000 0.0000 0.0000 0.0000 0.0000 -13184.9718 2050.7602 0.0000 0.0000 1043.7651 -10090.4465 177.5681 -11134.2116 -10087.9406 179.5932 -817.3425 -729.0666 29045.8458 3.2871 3.2777
TCL: Running 100000 steps at 210 kelvin.
TCL: Setting parameter langevinTemp to 210
TCL: Running for 100000 steps
ETITLE: TS BOND ANGLE DIHED IMPRP ELECT VDW BOUNDARY MISC KINETIC TOTAL TEMP POTENTIAL TOTAL3 TEMPAVG PRESSURE GPRESSURE VOLUME PRESSAVG GPRESSAVG
ENERGY: 600000 0.0000 0.0000 0.0000 0.0000 -13184.9718 2050.7602 0.0000 0.0000 1043.2470 -10090.9646 177.4800 -11134.2116 -10088.6507 177.4800 -799.9995 -729.7326 29045.8458 -799.9995 -729.7326
ENERGY: 700000 0.0000 0.0000 0.0000 0.0000 -12547.3231 1939.4012 0.0000 0.0000 1220.1922 -9387.7297 207.5824 -10607.9219 -9386.0527 209.6020 279.6408 349.6978 28912.3713 3.2514 3.3259
TCL: Running 100000 steps at 240 kelvin.
TCL: Setting parameter langevinTemp to 240
TCL: Running for 100000 steps
ETITLE: TS BOND ANGLE DIHED IMPRP ELECT VDW BOUNDARY MISC KINETIC TOTAL TEMP POTENTIAL TOTAL3 TEMPAVG PRESSURE GPRESSURE VOLUME PRESSAVG GPRESSAVG
ENERGY: 700000 0.0000 0.0000 0.0000 0.0000 -12547.3231 1939.4012 0.0000 0.0000 1219.5498 -9388.3720 207.4731 -10607.9219 -9386.5822 207.4731 280.9037 348.8449 28912.3713 280.9037 348.8449
ENERGY: 800000 0.0000 0.0000 0.0000 0.0000 -11945.9851 1751.8676 0.0000 0.0000 1422.1592 -8771.9583 241.9415 -10194.1176 -8769.6736 239.7633 137.4497 223.1958 29291.2111 3.0989 3.1218
TCL: Running 100000 steps at 270 kelvin.
TCL: Setting parameter langevinTemp to 270
TCL: Running for 100000 steps
ETITLE: TS BOND ANGLE DIHED IMPRP ELECT VDW BOUNDARY MISC KINETIC TOTAL TEMP POTENTIAL TOTAL3 TEMPAVG PRESSURE GPRESSURE VOLUME PRESSAVG GPRESSAVG
ENERGY: 800000 0.0000 0.0000 0.0000 0.0000 -11945.9851 1751.8676 0.0000 0.0000 1421.4509 -8772.6667 241.8210 -10194.1176 -8770.3503 241.8210 156.3914 221.7497 29291.2111 156.3914 221.7497
ENERGY: 900000 0.0000 0.0000 0.0000 0.0000 -11446.3011 1630.1077 0.0000 0.0000 1544.8858 -8271.3076 262.8201 -9816.1934 -8269.3536 269.3908 156.5873 213.1039 29839.0162 4.9430 4.8050
TCL: Running 1000000 steps at 300 kelvin.
TCL: Setting parameter langevinTemp to 300
TCL: Running for 1000000 steps
ETITLE: TS BOND ANGLE DIHED IMPRP ELECT VDW BOUNDARY MISC KINETIC TOTAL TEMP POTENTIAL TOTAL3 TEMPAVG PRESSURE GPRESSURE VOLUME PRESSAVG GPRESSAVG
ENERGY: 900000 0.0000 0.0000 0.0000 0.0000 -11446.3011 1630.1077 0.0000 0.0000 1544.0689 -8272.1244 262.6811 -9816.1934 -8269.4454 262.6811 124.6894 213.2446 29839.0162 124.6894 213.2446
ENERGY: 1100000 0.0000 0.0000 0.0000 0.0000 -10684.7202 1336.9802 0.0000 0.0000 1765.1259 -7582.6140 300.2880 -9347.7400 -7577.1845 300.5417 -966.3447 -912.8142 31185.8714 3.2786 3.4814
ENERGY: 1300000 0.0000 0.0000 0.0000 0.0000 -10851.3720 1513.7929 0.0000 0.0000 1768.1156 -7569.4635 300.7966 -9337.5791 -7565.0157 300.9883 609.4442 700.9960 30449.8626 3.4662 3.5069
ENERGY: 1500000 0.0000 0.0000 0.0000 0.0000 -10742.3686 1374.2368 0.0000 0.0000 1759.5509 -7608.5810 299.3395 -9368.1318 -7606.9179 299.9859 -514.1528 -429.8686 30445.2791 2.8079 2.8266
ENERGY: 1700000 0.0000 0.0000 0.0000 0.0000 -10829.3488 1390.7975 0.0000 0.0000 1728.7373 -7709.8139 294.0974 -9438.5512 -7707.4935 300.2412 -443.3932 -419.6896 30184.7629 4.2976 4.2211
ENERGY: 1900000 0.0000 0.0000 0.0000 0.0000 -10907.8189 1490.4906 0.0000 0.0000 1751.8676 -7665.4607 298.0324 -9417.3283 -7661.7994 300.2920 563.3300 685.3727 29679.6711 4.0772 4.0514
TCL: Exiting due to exit command.
