Info: SIMULATION PARAMETERS:
Info: TIMESTEP               2
Info: NUMBER OF STEPS        0
Info: STEPS PER CYCLE        10
Info: PERIODIC CELL BASIS 1  37.435 0 0
Info: PERIODIC CELL BASIS 2  0 35.779 0
Info: PERIODIC CELL BASIS 3  0 0 31.855
Info: PERIODIC CELL CENTER   0 0 0
Info: WRAPPING WATERS AROUND PERIODIC BOUNDARIES ON OUTPUT.
Info: WRAPPING ALL CLUSTERS AROUND PERIODIC BOUNDARIES ON OUTPUT.
Info: FIRST LDB TIMESTEP     50
Info: LAST LDB TIMESTEP     -1
Info: HOM BACKGROUND SCALING 1
Info: PME BACKGROUND SCALING 1
Info: MIN ATOMS PER PATCH    40
Info: EMPTY PATCH LOAD       40 ATOMS
Info: INITIAL TEMPERATURE    300
Info: CENTER OF MASS MOVING INITIALLY? NO
Info: DIELECTRIC             1
Info: EXCLUDE                SCALED ONE-FOUR
Info: 1-4 ELECTROSTATICS SCALED BY 0.833333
Info: MODIFIED 1-4 VDW PARAMETERS WILL BE USED
Info: DCD FILENAME           mobley_7608462_equil.dcd
Info: DCD FREQUENCY          100000
Info: DCD FIRST STEP         100000
Info: DCD FILE WILL CONTAIN UNIT CELL DATA
Info: XST FILENAME           mobley_7608462_equil.xst
Info: XST FREQUENCY          100000
Info: NO VELOCITY DCD OUTPUT
Info: NO FORCE DCD OUTPUT
Info: OUTPUT FILENAME        mobley_7608462_equil
Info: BINARY OUTPUT FILES WILL BE USED
Info: RESTART FILENAME       mobley_7608462_equil.restart
Info: RESTART FREQUENCY      100000
Info: BINARY RESTART FILES WILL BE USED
Info: CUTOFF                 9
Info: PAIRLIST DISTANCE      11
Info: PAIRLIST SHRINK RATE   0.01
Info: PAIRLIST GROW RATE     0.01
Info: PAIRLIST TRIGGER       0.3
Info: PAIRLISTS PER CYCLE    2
Info: PAIRLISTS ENABLED
Info: MARGIN                 8
Info: HYDROGEN GROUP CUTOFF  2.5
Info: PATCH DIMENSION        21.5
Info: ENERGY OUTPUT STEPS    100000
Info: ENERGY EVALUATION STEPS    100000
Info: OUTPUT ENERGY PRECISION 4
Info: CROSSTERM ENERGY INCLUDED IN DIHEDRAL
Info: TIMING OUTPUT STEPS    1000000
Info: PRESSURE OUTPUT STEPS  100000
Info: FIXED ATOMS ACTIVE
Info: LANGEVIN DYNAMICS ACTIVE
Info: LANGEVIN TEMPERATURE   30
Info: LANGEVIN USING BBK INTEGRATOR
Info: LANGEVIN DAMPING COEFFICIENT IS 1 INVERSE PS
Info: LANGEVIN DYNAMICS APPLIED TO HYDROGENS
Info: LANGEVIN PISTON PRESSURE CONTROL ACTIVE
Info:        TARGET PRESSURE IS 1.01325 BAR
Info:     OSCILLATION PERIOD IS 50 FS
Info:             DECAY TIME IS 25 FS
Info:     PISTON TEMPERATURE IS 300 K
Info:       PRESSURE CONTROL IS GROUP-BASED
Info:    INITIAL STRAIN RATE IS 0 0 0
Info:       CELL FLUCTUATION IS ISOTROPIC
Info: PARTICLE MESH EWALD (PME) ACTIVE
Info: PME TOLERANCE               1e-06
Info: PME EWALD COEFFICIENT       0.348832
Info: PME INTERPOLATION ORDER     4
Info: PME GRID DIMENSIONS         40 36 32
Info: PME MAXIMUM GRID SPACING    1
Info: FULL ELECTROSTATIC EVALUATION FREQUENCY      2
Info: USING VERLET I (r-RESPA) MTS SCHEME.
Info: C1 SPLITTING OF LONG RANGE ELECTROSTATICS
Info: PLACING ATOMS IN PATCHES BY HYDROGEN GROUPS
Info: RIGID BONDS TO HYDROGEN : ALL
Info:         ERROR TOLERANCE : 1e-08
Info:          MAX ITERATIONS : 100
Info: RIGID WATER USING SETTLE ALGORITHM
Info: RANDOM NUMBER SEED     1743727134
Info: USE HYDROGEN BONDS?    NO
Info: Using AMBER format force field!
Info: AMBER PARM FILE        mobley_7608462.prmtop
Info: COORDINATE PDB         mobley_7608462.pdb
Info: Exclusions will be read from PARM file!
Info: SCNB (VDW SCALING)     2
Info: USING ARITHMETIC MEAN TO COMBINE L-J SIGMA PARAMETERS
Info: BINARY COORDINATES     mobley_7608462_min.coor
Info: SUMMARY OF PARAMETERS:
Info: 5 BONDS
Info: 3 ANGLES
Info:   3 HARMONIC
Info:   0 COSINE-BASED
Info: 2 DIHEDRAL
Info: 0 IMPROPER
Info: 0 CROSSTERM
Info: 0 VDW
Info: 15 VDW_PAIRS
Info: 0 NBTHOLE_PAIRS
Info: STRUCTURE SUMMARY:
Info: 2940 ATOMS
Info: 2940 BONDS
Info: 18 ANGLES
Info: 30 DIHEDRALS
Info: 0 IMPROPERS
Info: 0 CROSSTERMS
Info: 2979 EXCLUSIONS
Info: 12 FIXED ATOMS
Info: 2933 RIGID BONDS
Info: 5 RIGID BONDS BETWEEN FIXED ATOMS
Info: 5856 DEGREES OF FREEDOM
Info: 983 HYDROGEN GROUPS
Info: 3 ATOMS IN LARGEST HYDROGEN GROUP
Info: 983 MIGRATION GROUPS
Info: 3 ATOMS IN LARGEST MIGRATION GROUP
Info: 7 HYDROGEN GROUPS WITH ALL ATOMS FIXED
Info: TOTAL MASS = 17696.2 amu
Info: TOTAL CHARGE = 9.99775e-05 e
Info: MASS DENSITY = 0.688739 g/cm^3
Info: ATOM DENSITY = 0.0689071 atoms/A^3
Info: ADDED 0 IMPLICIT EXCLUSIONS
Info: NONBONDED TABLE R-SQUARED SPACING: 0.0625
Info: NONBONDED TABLE SIZE: 705 POINTS
Info: REMOVING COM VELOCITY -0.0386544 -0.225971 0.00653345
TCL: Running for 100000 steps
ETITLE: TS BOND ANGLE DIHED IMPRP ELECT VDW BOUNDARY MISC KINETIC TOTAL TEMP POTENTIAL TOTAL3 TEMPAVG PRESSURE GPRESSURE VOLUME PRESSAVG GPRESSAVG
ENERGY: 0 0.0000 0.0000 0.0000 0.0000 -13559.9346 2356.3873 0.0000 0.0000 1786.0961 -9417.4511 306.9687 -11203.5473 -9417.0901 306.9687 374.3294 408.2133 42666.1686 374.3294 408.2133
ENERGY: 100000 0.0000 0.0000 0.0000 0.0000 -14273.0001 2535.3394 0.0000 0.0000 168.2610 -11569.3996 28.9183 -11737.6606 -11568.9944 31.0096 774.0851 838.5182 28189.0846 2.5423 2.5749
TCL: Running 100000 steps at 60 kelvin.
TCL: Setting parameter langevinTemp to 60
TCL: Running for 100000 steps
ETITLE: TS BOND ANGLE DIHED IMPRP ELECT VDW BOUNDARY MISC KINETIC TOTAL TEMP POTENTIAL TOTAL3 TEMPAVG PRESSURE GPRESSURE VOLUME PRESSAVG GPRESSAVG
ENERGY: 100000 0.0000 0.0000 0.0000 0.0000 -14273.0001 2535.3394 0.0000 0.0000 168.1744 -11569.4863 28.9034 -11737.6606 -11569.0741 28.9034 765.3410 838.4783 28189.0846 765.3410 838.4783
ENERGY: 200000 0.0000 0.0000 0.0000 0.0000 -13978.3860 2320.9887 0.0000 0.0000 352.1591 -11305.2382 60.5241 -11657.3973 -11304.1612 59.7676 -797.2721 -753.7537 28542.2652 4.0236 4.0369
TCL: Running 100000 steps at 90 kelvin.
TCL: Setting parameter langevinTemp to 90
TCL: Running for 100000 steps
ETITLE: TS BOND ANGLE DIHED IMPRP ELECT VDW BOUNDARY MISC KINETIC TOTAL TEMP POTENTIAL TOTAL3 TEMPAVG PRESSURE GPRESSURE VOLUME PRESSAVG GPRESSAVG
ENERGY: 200000 0.0000 0.0000 0.0000 0.0000 -13978.3860 2320.9887 0.0000 0.0000 351.9775 -11305.4197 60.4929 -11657.3973 -11304.6501 60.4929 -818.3983 -753.7366 28542.2652 -818.3983 -753.7366
ENERGY: 300000 0.0000 0.0000 0.0000 0.0000 -13920.6524 2376.8251 0.0000 0.0000 522.0244 -11021.8028 89.7181 -11543.8272 -11021.0727 89.9252 99.8925 152.1776 28366.4738 3.4520 3.3613
TCL: Running 100000 steps at 120 kelvin.
TCL: Setting parameter langevinTemp to 120
TCL: Running for 100000 steps
ETITLE: TS BOND ANGLE DIHED IMPRP ELECT VDW BOUNDARY MISC KINETIC TOTAL TEMP POTENTIAL TOTAL3 TEMPAVG PRESSURE GPRESSURE VOLUME PRESSAVG GPRESSAVG
ENERGY: 300000 0.0000 0.0000 0.0000 0.0000 -13920.6524 2376.8251 0.0000 0.0000 521.7693 -11022.0579 89.6743 -11543.8272 -11021.0029 89.6743 92.4130 151.7489 28366.4738 92.4130 151.7489
ENERGY: 400000 0.0000 0.0000 0.0000 0.0000 -13679.8230 2245.3055 0.0000 0.0000 699.6752 -10734.8423 120.2502 -11434.5175 -10732.8312 120.0824 -574.1657 -479.6258 28471.0691 4.0020 3.9059
TCL: Running 100000 steps at 150 kelvin.
TCL: Setting parameter langevinTemp to 150
TCL: Running for 100000 steps
ETITLE: TS BOND ANGLE DIHED IMPRP ELECT VDW BOUNDARY MISC KINETIC TOTAL TEMP POTENTIAL TOTAL3 TEMPAVG PRESSURE GPRESSURE VOLUME PRESSAVG GPRESSAVG
ENERGY: 400000 0.0000 0.0000 0.0000 0.0000 -13679.8230 2245.3055 0.0000 0.0000 699.3435 -10735.1740 120.1932 -11434.5175 -10733.7266 120.1932 -537.5325 -479.3837 28471.0691 -537.5325 -479.3837
ENERGY: 500000 0.0000 0.0000 0.0000 0.0000 -13536.1139 2248.2619 0.0000 0.0000 869.1036 -10418.7484 149.3691 -11287.8520 -10417.9886 150.0692 -119.1200 -32.3084 28699.8839 3.5696 3.6161
TCL: Running 100000 steps at 180 kelvin.
TCL: Setting parameter langevinTemp to 180
TCL: Running for 100000 steps
ETITLE: TS BOND ANGLE DIHED IMPRP ELECT VDW BOUNDARY MISC KINETIC TOTAL TEMP POTENTIAL TOTAL3 TEMPAVG PRESSURE GPRESSURE VOLUME PRESSAVG GPRESSAVG
ENERGY: 500000 0.0000 0.0000 0.0000 0.0000 -13536.1139 2248.2619 0.0000 0.0000 868.6753 -10419.1767 149.2955 -11287.8520 -10417.5549 149.2955 -83.3825 -32.7494 28699.8839 -83.3825 -32.7494
ENERGY: 600000 0.0000 0.0000 0.0000 0.0000 -13029.1682 2118.2213 0.0000 0.0000 1055.0046 -9855.9423 181.3191 -10910.9468 -9852.6474 179.4427 219.8764 229.1748 28815.0658 3.2675 3.2619
TCL: Running 100000 steps at 210 kelvin.
TCL: Setting parameter langevinTemp to 210
TCL: Running for 100000 steps
ETITLE: TS BOND ANGLE DIHED IMPRP ELECT VDW BOUNDARY MISC KINETIC TOTAL TEMP POTENTIAL TOTAL3 TEMPAVG PRESSURE GPRESSURE VOLUME PRESSAVG GPRESSAVG
ENERGY: 600000 0.0000 0.0000 0.0000 0.0000 -13029.1682 2118.2213 0.0000 0.0000 1054.4829 -9856.4639 181.2295 -10910.9468 -9854.9832 181.2295 182.8833 229.4981 28815.0658 182.8833 229.4981
ENERGY: 700000 0.0000 0.0000 0.0000 0.0000 -12550.1741 1993.9567 0.0000 0.0000 1193.4481 -9362.7693 205.1128 -10556.2174 -9359.0333 210.0699 734.4532 799.0498 28502.3130 3.0441 3.0319
TCL: Running 100000 steps at 240 kelvin.
TCL: Setting parameter langevinTemp to 240
TCL: Running for 100000 steps
ETITLE: TS BOND ANGLE DIHED IMPRP ELECT VDW BOUNDARY MISC KINETIC TOTAL TEMP POTENTIAL TOTAL3 TEMPAVG PRESSURE GPRESSURE VOLUME PRESSAVG GPRESSAVG
ENERGY: 700000 0.0000 0.0000 0.0000 0.0000 -12550.1741 1993.9567 0.0000 0.0000 1192.8625 -9363.3549 205.0122 -10556.2174 -9361.2248 205.0122 718.7330 799.5924 28502.3130 718.7330 799.5924
ENERGY: 800000 0.0000 0.0000 0.0000 0.0000 -11818.1721 1810.3288 0.0000 0.0000 1393.5589 -8614.2844 239.5050 -10007.8433 -8613.0865 239.9833 948.4867 1075.4580 28942.5404 4.7316 4.6497
TCL: Running 100000 steps at 270 kelvin.
TCL: Setting parameter langevinTemp to 270
TCL: Running for 100000 steps
ETITLE: TS BOND ANGLE DIHED IMPRP ELECT VDW BOUNDARY MISC KINETIC TOTAL TEMP POTENTIAL TOTAL3 TEMPAVG PRESSURE GPRESSURE VOLUME PRESSAVG GPRESSAVG
ENERGY: 800000 0.0000 0.0000 0.0000 0.0000 -11818.1721 1810.3288 0.0000 0.0000 1392.8370 -8615.0063 239.3810 -10007.8433 -8613.2298 239.3810 981.1415 1074.8935 28942.5404 981.1415 1074.8935
ENERGY: 900000 0.0000 0.0000 0.0000 0.0000 -11141.9928 1528.7482 0.0000 0.0000 1550.7706 -8062.4740 266.5243 -9613.2446 -8061.0833 269.8826 6.4354 119.5732 29413.6581 3.3186 3.1417
TCL: Running 1000000 steps at 300 kelvin.
TCL: Setting parameter langevinTemp to 300
TCL: Running for 1000000 steps
ETITLE: TS BOND ANGLE DIHED IMPRP ELECT VDW BOUNDARY MISC KINETIC TOTAL TEMP POTENTIAL TOTAL3 TEMPAVG PRESSURE GPRESSURE VOLUME PRESSAVG GPRESSAVG
ENERGY: 900000 0.0000 0.0000 0.0000 0.0000 -11141.9928 1528.7482 0.0000 0.0000 1550.0066 -8063.2380 266.3930 -9613.2446 -8061.2253 266.3930 28.9299 117.6548 29413.6581 28.9299 117.6548
ENERGY: 1100000 0.0000 0.0000 0.0000 0.0000 -10619.1403 1401.6018 0.0000 0.0000 1773.2116 -7444.3268 304.7543 -9217.5385 -7440.9145 299.6678 -50.0565 29.6778 30175.3191 4.7154 4.7868
ENERGY: 1300000 0.0000 0.0000 0.0000 0.0000 -10562.4377 1351.3464 0.0000 0.0000 1787.9582 -7423.1330 307.2888 -9211.0912 -7421.3233 299.6723 -578.5327 -483.1997 30566.5004 3.0850 3.2852
ENERGY: 1500000 0.0000 0.0000 0.0000 0.0000 -10572.3939 1456.8511 0.0000 0.0000 1692.6760 -7422.8669 290.9130 -9115.5428 -7420.6759 300.1972 607.8580 673.6608 30289.9956 3.1291 3.1502
ENERGY: 1700000 0.0000 0.0000 0.0000 0.0000 -10532.5259 1426.5745 0.0000 0.0000 1766.5128 -7339.4386 303.6030 -9105.9514 -7334.1898 299.4835 190.4090 243.2833 30923.9082 4.4894 4.3661
ENERGY: 1900000 0.0000 0.0000 0.0000 0.0000 -10718.5020 1521.2972 0.0000 0.0000 1783.1977 -7414.0071 306.4706 -9197.2049 -7409.6456 300.3641 499.1045 586.7216 30655.0424 1.7869 1.7357
TCL: Exiting due to exit command.
