Info: SIMULATION PARAMETERS:
Info: TIMESTEP               2
Info: NUMBER OF STEPS        0
Info: STEPS PER CYCLE        10
Info: PERIODIC CELL BASIS 1  37.133 0 0
Info: PERIODIC CELL BASIS 2  0 36.762 0
Info: PERIODIC CELL BASIS 3  0 0 33.088
Info: PERIODIC CELL CENTER   0 0 0
Info: WRAPPING WATERS AROUND PERIODIC BOUNDARIES ON OUTPUT.
Info: WRAPPING ALL CLUSTERS AROUND PERIODIC BOUNDARIES ON OUTPUT.
Info: FIRST LDB TIMESTEP     50
Info: LAST LDB TIMESTEP     -1
Info: HOM BACKGROUND SCALING 1
Info: PME BACKGROUND SCALING 1
Info: MIN ATOMS PER PATCH    40
Info: EMPTY PATCH LOAD       40 ATOMS
Info: INITIAL TEMPERATURE    300
Info: CENTER OF MASS MOVING INITIALLY? NO
Info: DIELECTRIC             1
Info: EXCLUDE                SCALED ONE-FOUR
Info: 1-4 ELECTROSTATICS SCALED BY 0.833333
Info: MODIFIED 1-4 VDW PARAMETERS WILL BE USED
Info: DCD FILENAME           mobley_1571523_equil.dcd
Info: DCD FREQUENCY          100000
Info: DCD FIRST STEP         100000
Info: DCD FILE WILL CONTAIN UNIT CELL DATA
Info: XST FILENAME           mobley_1571523_equil.xst
Info: XST FREQUENCY          100000
Info: NO VELOCITY DCD OUTPUT
Info: NO FORCE DCD OUTPUT
Info: OUTPUT FILENAME        mobley_1571523_equil
Info: BINARY OUTPUT FILES WILL BE USED
Info: RESTART FILENAME       mobley_1571523_equil.restart
Info: RESTART FREQUENCY      100000
Info: BINARY RESTART FILES WILL BE USED
Info: CUTOFF                 9
Info: PAIRLIST DISTANCE      11
Info: PAIRLIST SHRINK RATE   0.01
Info: PAIRLIST GROW RATE     0.01
Info: PAIRLIST TRIGGER       0.3
Info: PAIRLISTS PER CYCLE    2
Info: PAIRLISTS ENABLED
Info: MARGIN                 8
Info: HYDROGEN GROUP CUTOFF  2.5
Info: PATCH DIMENSION        21.5
Info: ENERGY OUTPUT STEPS    100000
Info: ENERGY EVALUATION STEPS    100000
Info: OUTPUT ENERGY PRECISION 4
Info: CROSSTERM ENERGY INCLUDED IN DIHEDRAL
Info: TIMING OUTPUT STEPS    1000000
Info: PRESSURE OUTPUT STEPS  100000
Info: FIXED ATOMS ACTIVE
Info: LANGEVIN DYNAMICS ACTIVE
Info: LANGEVIN TEMPERATURE   30
Info: LANGEVIN USING BBK INTEGRATOR
Info: LANGEVIN DAMPING COEFFICIENT IS 1 INVERSE PS
Info: LANGEVIN DYNAMICS APPLIED TO HYDROGENS
Info: LANGEVIN PISTON PRESSURE CONTROL ACTIVE
Info:        TARGET PRESSURE IS 1.01325 BAR
Info:     OSCILLATION PERIOD IS 50 FS
Info:             DECAY TIME IS 25 FS
Info:     PISTON TEMPERATURE IS 300 K
Info:       PRESSURE CONTROL IS GROUP-BASED
Info:    INITIAL STRAIN RATE IS 0 0 0
Info:       CELL FLUCTUATION IS ISOTROPIC
Info: PARTICLE MESH EWALD (PME) ACTIVE
Info: PME TOLERANCE               1e-06
Info: PME EWALD COEFFICIENT       0.348832
Info: PME INTERPOLATION ORDER     4
Info: PME GRID DIMENSIONS         40 40 36
Info: PME MAXIMUM GRID SPACING    1
Info: FULL ELECTROSTATIC EVALUATION FREQUENCY      2
Info: USING VERLET I (r-RESPA) MTS SCHEME.
Info: C1 SPLITTING OF LONG RANGE ELECTROSTATICS
Info: PLACING ATOMS IN PATCHES BY HYDROGEN GROUPS
Info: RIGID BONDS TO HYDROGEN : ALL
Info:         ERROR TOLERANCE : 1e-08
Info:          MAX ITERATIONS : 100
Info: RIGID WATER USING SETTLE ALGORITHM
Info: RANDOM NUMBER SEED     1743742865
Info: USE HYDROGEN BONDS?    NO
Info: Using AMBER format force field!
Info: AMBER PARM FILE        mobley_1571523.prmtop
Info: COORDINATE PDB         mobley_1571523.pdb
Info: Exclusions will be read from PARM file!
Info: SCNB (VDW SCALING)     2
Info: USING ARITHMETIC MEAN TO COMBINE L-J SIGMA PARAMETERS
Info: BINARY COORDINATES     mobley_1571523_min.coor
Info: SUMMARY OF PARAMETERS:
Info: 8 BONDS
Info: 7 ANGLES
Info:   7 HARMONIC
Info:   0 COSINE-BASED
Info: 4 DIHEDRAL
Info: 0 IMPROPER
Info: 0 CROSSTERM
Info: 0 VDW
Info: 28 VDW_PAIRS
Info: 0 NBTHOLE_PAIRS
Info: STRUCTURE SUMMARY:
Info: 2983 ATOMS
Info: 2983 BONDS
Info: 31 ANGLES
Info: 44 DIHEDRALS
Info: 0 IMPROPERS
Info: 0 CROSSTERMS
Info: 3049 EXCLUSIONS
Info: 19 FIXED ATOMS
Info: 2974 RIGID BONDS
Info: 10 RIGID BONDS BETWEEN FIXED ATOMS
Info: 5928 DEGREES OF FREEDOM
Info: 997 HYDROGEN GROUPS
Info: 4 ATOMS IN LARGEST HYDROGEN GROUP
Info: 997 MIGRATION GROUPS
Info: 4 ATOMS IN LARGEST MIGRATION GROUP
Info: 9 HYDROGEN GROUPS WITH ALL ATOMS FIXED
Info: TOTAL MASS = 17922 amu
Info: TOTAL CHARGE = -0.000100031 e
Info: MASS DENSITY = 0.658894 g/cm^3
Info: ATOM DENSITY = 0.0660425 atoms/A^3
Info: ADDED 0 IMPLICIT EXCLUSIONS
Info: NONBONDED TABLE R-SQUARED SPACING: 0.0625
Info: NONBONDED TABLE SIZE: 705 POINTS
Info: REMOVING COM VELOCITY 0.0745678 -0.0579148 -0.0685221
TCL: Running for 100000 steps
ETITLE: TS BOND ANGLE DIHED IMPRP ELECT VDW BOUNDARY MISC KINETIC TOTAL TEMP POTENTIAL TOTAL3 TEMPAVG PRESSURE GPRESSURE VOLUME PRESSAVG GPRESSAVG
ENERGY: 0 0.0000 0.0000 0.0000 0.0000 -13817.4700 2447.6971 0.0000 0.0000 1794.4418 -9575.3312 304.6573 -11369.7730 -9574.9562 304.6573 489.8501 523.6100 45167.8778 489.8501 523.6100
ENERGY: 100000 0.0000 0.0000 0.0000 0.0000 -14347.4504 2404.1965 0.0000 0.0000 181.3266 -11761.9274 30.7853 -11943.2539 -11761.3303 30.9199 -788.9017 -742.1685 28829.9619 3.8100 3.8011
TCL: Running 100000 steps at 60 kelvin.
TCL: Setting parameter langevinTemp to 60
TCL: Running for 100000 steps
ETITLE: TS BOND ANGLE DIHED IMPRP ELECT VDW BOUNDARY MISC KINETIC TOTAL TEMP POTENTIAL TOTAL3 TEMPAVG PRESSURE GPRESSURE VOLUME PRESSAVG GPRESSAVG
ENERGY: 100000 0.0000 0.0000 0.0000 0.0000 -14347.4504 2404.1965 0.0000 0.0000 181.2407 -11762.0133 30.7707 -11943.2539 -11761.6037 30.7707 -797.5070 -742.0158 28829.9619 -797.5070 -742.0158
ENERGY: 200000 0.0000 0.0000 0.0000 0.0000 -14177.3639 2343.9294 0.0000 0.0000 350.5341 -11482.9004 59.5131 -11833.4345 -11481.8302 59.9261 -875.6246 -833.5816 28818.0584 3.4700 3.4606
TCL: Running 100000 steps at 90 kelvin.
TCL: Setting parameter langevinTemp to 90
TCL: Running for 100000 steps
ETITLE: TS BOND ANGLE DIHED IMPRP ELECT VDW BOUNDARY MISC KINETIC TOTAL TEMP POTENTIAL TOTAL3 TEMPAVG PRESSURE GPRESSURE VOLUME PRESSAVG GPRESSAVG
ENERGY: 200000 0.0000 0.0000 0.0000 0.0000 -14177.3639 2343.9294 0.0000 0.0000 350.3621 -11483.0724 59.4839 -11833.4345 -11482.2417 59.4839 -892.7990 -833.6044 28818.0584 -892.7990 -833.6044
ENERGY: 300000 0.0000 0.0000 0.0000 0.0000 -14187.0181 2453.3899 0.0000 0.0000 533.7584 -11199.8699 90.6206 -11733.6283 -11198.9176 89.9219 428.1136 450.6534 28718.1883 2.7069 2.6893
TCL: Running 100000 steps at 120 kelvin.
TCL: Setting parameter langevinTemp to 120
TCL: Running for 100000 steps
ETITLE: TS BOND ANGLE DIHED IMPRP ELECT VDW BOUNDARY MISC KINETIC TOTAL TEMP POTENTIAL TOTAL3 TEMPAVG PRESSURE GPRESSURE VOLUME PRESSAVG GPRESSAVG
ENERGY: 300000 0.0000 0.0000 0.0000 0.0000 -14187.0181 2453.3899 0.0000 0.0000 533.5055 -11200.1228 90.5777 -11733.6283 -11198.8745 90.5777 394.5929 449.5717 28718.1883 394.5929 449.5717
ENERGY: 400000 0.0000 0.0000 0.0000 0.0000 -13927.7254 2360.9469 0.0000 0.0000 706.9679 -10859.8106 120.0278 -11566.7786 -10858.2801 119.9690 36.2318 75.5303 29295.7591 4.7716 4.7187
TCL: Running 100000 steps at 150 kelvin.
TCL: Setting parameter langevinTemp to 150
TCL: Running for 100000 steps
ETITLE: TS BOND ANGLE DIHED IMPRP ELECT VDW BOUNDARY MISC KINETIC TOTAL TEMP POTENTIAL TOTAL3 TEMPAVG PRESSURE GPRESSURE VOLUME PRESSAVG GPRESSAVG
ENERGY: 400000 0.0000 0.0000 0.0000 0.0000 -13927.7254 2360.9469 0.0000 0.0000 706.6057 -10860.1729 119.9663 -11566.7786 -10859.0950 119.9663 28.5888 74.9670 29295.7591 28.5888 74.9670
ENERGY: 500000 0.0000 0.0000 0.0000 0.0000 -13736.4964 2299.6144 0.0000 0.0000 882.1413 -10554.7407 149.7685 -11436.8820 -10552.6169 149.9217 26.3391 56.4198 29428.0443 4.0762 4.0506
TCL: Running 100000 steps at 180 kelvin.
TCL: Setting parameter langevinTemp to 180
TCL: Running for 100000 steps
ETITLE: TS BOND ANGLE DIHED IMPRP ELECT VDW BOUNDARY MISC KINETIC TOTAL TEMP POTENTIAL TOTAL3 TEMPAVG PRESSURE GPRESSURE VOLUME PRESSAVG GPRESSAVG
ENERGY: 500000 0.0000 0.0000 0.0000 0.0000 -13736.4964 2299.6144 0.0000 0.0000 881.7180 -10555.1640 149.6966 -11436.8820 -10553.4945 149.6966 11.2649 56.5576 29428.0443 11.2649 56.5576
ENERGY: 600000 0.0000 0.0000 0.0000 0.0000 -13227.6138 2133.8746 0.0000 0.0000 1048.8849 -10044.8543 178.0779 -11093.7392 -10043.0055 179.9665 88.6877 110.9943 29263.1335 3.2624 3.1218
TCL: Running 100000 steps at 210 kelvin.
TCL: Setting parameter langevinTemp to 210
TCL: Running for 100000 steps
ETITLE: TS BOND ANGLE DIHED IMPRP ELECT VDW BOUNDARY MISC KINETIC TOTAL TEMP POTENTIAL TOTAL3 TEMPAVG PRESSURE GPRESSURE VOLUME PRESSAVG GPRESSAVG
ENERGY: 600000 0.0000 0.0000 0.0000 0.0000 -13227.6138 2133.8746 0.0000 0.0000 1048.3720 -10045.3672 177.9908 -11093.7392 -10043.6278 177.9908 55.5068 110.8724 29263.1335 55.5068 110.8724
ENERGY: 700000 0.0000 0.0000 0.0000 0.0000 -12473.2580 1849.6937 0.0000 0.0000 1240.4490 -9383.1154 210.6013 -10623.5644 -9379.8283 209.8117 -413.6621 -355.3119 29263.5991 3.3284 3.2827
TCL: Running 100000 steps at 240 kelvin.
TCL: Setting parameter langevinTemp to 240
TCL: Running for 100000 steps
ETITLE: TS BOND ANGLE DIHED IMPRP ELECT VDW BOUNDARY MISC KINETIC TOTAL TEMP POTENTIAL TOTAL3 TEMPAVG PRESSURE GPRESSURE VOLUME PRESSAVG GPRESSAVG
ENERGY: 700000 0.0000 0.0000 0.0000 0.0000 -12473.2580 1849.6937 0.0000 0.0000 1239.8202 -9383.7442 210.4946 -10623.5644 -9381.3668 210.4946 -432.5055 -354.7958 29263.5991 -432.5055 -354.7958
ENERGY: 800000 0.0000 0.0000 0.0000 0.0000 -12000.1441 1748.7023 0.0000 0.0000 1417.1642 -8834.2777 240.6037 -10251.4418 -8832.6413 239.9774 293.9738 368.5371 28994.5582 2.5605 2.7312
TCL: Running 100000 steps at 270 kelvin.
TCL: Setting parameter langevinTemp to 270
TCL: Running for 100000 steps
ETITLE: TS BOND ANGLE DIHED IMPRP ELECT VDW BOUNDARY MISC KINETIC TOTAL TEMP POTENTIAL TOTAL3 TEMPAVG PRESSURE GPRESSURE VOLUME PRESSAVG GPRESSAVG
ENERGY: 800000 0.0000 0.0000 0.0000 0.0000 -12000.1441 1748.7023 0.0000 0.0000 1416.4264 -8835.0154 240.4785 -10251.4418 -8832.2746 240.4785 285.3025 368.0031 28994.5582 285.3025 368.0031
ENERGY: 900000 0.0000 0.0000 0.0000 0.0000 -11347.4357 1585.2980 0.0000 0.0000 1636.9268 -8125.2109 277.9147 -9762.1377 -8121.4758 270.0730 -53.7925 60.0210 30353.2617 3.3573 3.3070
TCL: Running 1000000 steps at 300 kelvin.
TCL: Setting parameter langevinTemp to 300
TCL: Running for 1000000 steps
ETITLE: TS BOND ANGLE DIHED IMPRP ELECT VDW BOUNDARY MISC KINETIC TOTAL TEMP POTENTIAL TOTAL3 TEMPAVG PRESSURE GPRESSURE VOLUME PRESSAVG GPRESSAVG
ENERGY: 900000 0.0000 0.0000 0.0000 0.0000 -11347.4357 1585.2980 0.0000 0.0000 1636.1244 -8126.0133 277.7784 -9762.1377 -8124.0449 277.7784 -15.9145 62.3915 30353.2617 -15.9145 62.3915
ENERGY: 1100000 0.0000 0.0000 0.0000 0.0000 -10844.9718 1462.0316 0.0000 0.0000 1800.5609 -7582.3792 305.6962 -9382.9401 -7579.1591 300.4262 218.2458 326.3300 30466.6258 3.5905 3.6154
ENERGY: 1300000 0.0000 0.0000 0.0000 0.0000 -10643.2536 1304.9414 0.0000 0.0000 1757.4688 -7580.8434 298.3801 -9338.3122 -7577.6761 300.2534 -863.3495 -800.6624 30718.2406 1.6760 1.6019
ENERGY: 1500000 0.0000 0.0000 0.0000 0.0000 -10922.6805 1516.2072 0.0000 0.0000 1758.4836 -7647.9898 298.5524 -9406.4733 -7643.4982 300.0960 379.9397 449.5813 30705.1838 3.0056 2.8830
ENERGY: 1700000 0.0000 0.0000 0.0000 0.0000 -10790.1302 1404.7109 0.0000 0.0000 1791.0257 -7594.3936 304.0773 -9385.4193 -7590.6179 300.6476 -395.7794 -354.3444 30875.3897 3.0952 2.9552
ENERGY: 1900000 0.0000 0.0000 0.0000 0.0000 -10827.5945 1459.6856 0.0000 0.0000 1766.6023 -7601.3066 299.9307 -9367.9089 -7597.5824 300.0267 264.7925 320.2658 30367.6275 3.6061 3.5591
TCL: Exiting due to exit command.
