Info: SIMULATION PARAMETERS:
Info: TIMESTEP               2
Info: NUMBER OF STEPS        0
Info: STEPS PER CYCLE        10
Info: PERIODIC CELL BASIS 1  37.133 0 0
Info: PERIODIC CELL BASIS 2  0 35.411 0
Info: PERIODIC CELL BASIS 3  0 0 33.876
Info: PERIODIC CELL CENTER   0 0 0
Info: WRAPPING WATERS AROUND PERIODIC BOUNDARIES ON OUTPUT.
Info: WRAPPING ALL CLUSTERS AROUND PERIODIC BOUNDARIES ON OUTPUT.
Info: FIRST LDB TIMESTEP     50
Info: LAST LDB TIMESTEP     -1
Info: HOM BACKGROUND SCALING 1
Info: PME BACKGROUND SCALING 1
Info: MIN ATOMS PER PATCH    40
Info: EMPTY PATCH LOAD       40 ATOMS
Info: INITIAL TEMPERATURE    300
Info: CENTER OF MASS MOVING INITIALLY? NO
Info: DIELECTRIC             1
Info: EXCLUDE                SCALED ONE-FOUR
Info: 1-4 ELECTROSTATICS SCALED BY 0.833333
Info: MODIFIED 1-4 VDW PARAMETERS WILL BE USED
Info: DCD FILENAME           mobley_4465023_equil.dcd
Info: DCD FREQUENCY          100000
Info: DCD FIRST STEP         100000
Info: DCD FILE WILL CONTAIN UNIT CELL DATA
Info: XST FILENAME           mobley_4465023_equil.xst
Info: XST FREQUENCY          100000
Info: NO VELOCITY DCD OUTPUT
Info: NO FORCE DCD OUTPUT
Info: OUTPUT FILENAME        mobley_4465023_equil
Info: BINARY OUTPUT FILES WILL BE USED
Info: RESTART FILENAME       mobley_4465023_equil.restart
Info: RESTART FREQUENCY      100000
Info: BINARY RESTART FILES WILL BE USED
Info: CUTOFF                 9
Info: PAIRLIST DISTANCE      11
Info: PAIRLIST SHRINK RATE   0.01
Info: PAIRLIST GROW RATE     0.01
Info: PAIRLIST TRIGGER       0.3
Info: PAIRLISTS PER CYCLE    2
Info: PAIRLISTS ENABLED
Info: MARGIN                 8
Info: HYDROGEN GROUP CUTOFF  2.5
Info: PATCH DIMENSION        21.5
Info: ENERGY OUTPUT STEPS    100000
Info: ENERGY EVALUATION STEPS    100000
Info: OUTPUT ENERGY PRECISION 4
Info: CROSSTERM ENERGY INCLUDED IN DIHEDRAL
Info: TIMING OUTPUT STEPS    1000000
Info: PRESSURE OUTPUT STEPS  100000
Info: FIXED ATOMS ACTIVE
Info: LANGEVIN DYNAMICS ACTIVE
Info: LANGEVIN TEMPERATURE   30
Info: LANGEVIN USING BBK INTEGRATOR
Info: LANGEVIN DAMPING COEFFICIENT IS 1 INVERSE PS
Info: LANGEVIN DYNAMICS APPLIED TO HYDROGENS
Info: LANGEVIN PISTON PRESSURE CONTROL ACTIVE
Info:        TARGET PRESSURE IS 1.01325 BAR
Info:     OSCILLATION PERIOD IS 50 FS
Info:             DECAY TIME IS 25 FS
Info:     PISTON TEMPERATURE IS 300 K
Info:       PRESSURE CONTROL IS GROUP-BASED
Info:    INITIAL STRAIN RATE IS 0 0 0
Info:       CELL FLUCTUATION IS ISOTROPIC
Info: PARTICLE MESH EWALD (PME) ACTIVE
Info: PME TOLERANCE               1e-06
Info: PME EWALD COEFFICIENT       0.348832
Info: PME INTERPOLATION ORDER     4
Info: PME GRID DIMENSIONS         40 36 36
Info: PME MAXIMUM GRID SPACING    1
Info: FULL ELECTROSTATIC EVALUATION FREQUENCY      2
Info: USING VERLET I (r-RESPA) MTS SCHEME.
Info: C1 SPLITTING OF LONG RANGE ELECTROSTATICS
Info: PLACING ATOMS IN PATCHES BY HYDROGEN GROUPS
Info: RIGID BONDS TO HYDROGEN : ALL
Info:         ERROR TOLERANCE : 1e-08
Info:          MAX ITERATIONS : 100
Info: RIGID WATER USING SETTLE ALGORITHM
Info: RANDOM NUMBER SEED     1743674305
Info: USE HYDROGEN BONDS?    NO
Info: Using AMBER format force field!
Info: AMBER PARM FILE        mobley_4465023.prmtop
Info: COORDINATE PDB         mobley_4465023.pdb
Info: Exclusions will be read from PARM file!
Info: SCNB (VDW SCALING)     2
Info: USING ARITHMETIC MEAN TO COMBINE L-J SIGMA PARAMETERS
Info: BINARY COORDINATES     mobley_4465023_min.coor
Info: SUMMARY OF PARAMETERS:
Info: 5 BONDS
Info: 3 ANGLES
Info:   3 HARMONIC
Info:   0 COSINE-BASED
Info: 2 DIHEDRAL
Info: 0 IMPROPER
Info: 0 CROSSTERM
Info: 0 VDW
Info: 15 VDW_PAIRS
Info: 0 NBTHOLE_PAIRS
Info: STRUCTURE SUMMARY:
Info: 2988 ATOMS
Info: 2987 BONDS
Info: 6 ANGLES
Info: 6 DIHEDRALS
Info: 0 IMPROPERS
Info: 0 CROSSTERMS
Info: 2997 EXCLUSIONS
Info: 6 FIXED ATOMS
Info: 2984 RIGID BONDS
Info: 2 RIGID BONDS BETWEEN FIXED ATOMS
Info: 5964 DEGREES OF FREEDOM
Info: 998 HYDROGEN GROUPS
Info: 3 ATOMS IN LARGEST HYDROGEN GROUP
Info: 998 MIGRATION GROUPS
Info: 3 ATOMS IN LARGEST MIGRATION GROUP
Info: 4 HYDROGEN GROUPS WITH ALL ATOMS FIXED
Info: TOTAL MASS = 18004.8 amu
Info: TOTAL CHARGE = -1.49012e-08 e
Info: MASS DENSITY = 0.67121 g/cm^3
Info: ATOM DENSITY = 0.0670796 atoms/A^3
Info: ADDED 0 IMPLICIT EXCLUSIONS
Info: NONBONDED TABLE R-SQUARED SPACING: 0.0625
Info: NONBONDED TABLE SIZE: 705 POINTS
Info: REMOVING COM VELOCITY 0.151406 0.0570621 0.043147
TCL: Running for 100000 steps
ETITLE: TS BOND ANGLE DIHED IMPRP ELECT VDW BOUNDARY MISC KINETIC TOTAL TEMP POTENTIAL TOTAL3 TEMPAVG PRESSURE GPRESSURE VOLUME PRESSAVG GPRESSAVG
ENERGY: 0 0.0000 0.0000 0.0000 0.0000 -13843.4041 2422.4290 0.0000 0.0000 1794.9431 -9626.0320 302.9029 -11420.9751 -9625.7045 302.9029 343.3200 377.9307 44544.1169 343.3200 377.9307
ENERGY: 100000 0.0000 0.0000 0.0000 0.0000 -14413.7400 2479.0872 0.0000 0.0000 177.8927 -11756.7601 30.0200 -11934.6529 -11756.3482 30.8504 -426.1198 -357.8243 29528.6466 4.3211 4.3189
TCL: Running 100000 steps at 60 kelvin.
TCL: Setting parameter langevinTemp to 60
TCL: Running for 100000 steps
ETITLE: TS BOND ANGLE DIHED IMPRP ELECT VDW BOUNDARY MISC KINETIC TOTAL TEMP POTENTIAL TOTAL3 TEMPAVG PRESSURE GPRESSURE VOLUME PRESSAVG GPRESSAVG
ENERGY: 100000 0.0000 0.0000 0.0000 0.0000 -14413.7400 2479.0872 0.0000 0.0000 177.8018 -11756.8511 30.0047 -11934.6529 -11756.5241 30.0047 -421.3830 -357.9094 29528.6466 -421.3830 -357.9094
ENERGY: 200000 0.0000 0.0000 0.0000 0.0000 -14355.0158 2458.5809 0.0000 0.0000 360.0626 -11536.3723 60.7618 -11896.4349 -11535.2299 60.0609 -232.7557 -169.1692 28935.8221 4.9971 4.9974
TCL: Running 100000 steps at 90 kelvin.
TCL: Setting parameter langevinTemp to 90
TCL: Running for 100000 steps
ETITLE: TS BOND ANGLE DIHED IMPRP ELECT VDW BOUNDARY MISC KINETIC TOTAL TEMP POTENTIAL TOTAL3 TEMPAVG PRESSURE GPRESSURE VOLUME PRESSAVG GPRESSAVG
ENERGY: 200000 0.0000 0.0000 0.0000 0.0000 -14355.0158 2458.5809 0.0000 0.0000 359.8844 -11536.5505 60.7317 -11896.4349 -11535.6866 60.7317 -234.0754 -169.3323 28935.8221 -234.0754 -169.3323
ENERGY: 300000 0.0000 0.0000 0.0000 0.0000 -14172.3496 2423.0259 0.0000 0.0000 530.3787 -11218.9450 89.5033 -11749.3237 -11217.4572 89.8649 167.4188 254.1127 28859.0879 4.0503 3.9786
TCL: Running 100000 steps at 120 kelvin.
TCL: Setting parameter langevinTemp to 120
TCL: Running for 100000 steps
ETITLE: TS BOND ANGLE DIHED IMPRP ELECT VDW BOUNDARY MISC KINETIC TOTAL TEMP POTENTIAL TOTAL3 TEMPAVG PRESSURE GPRESSURE VOLUME PRESSAVG GPRESSAVG
ENERGY: 300000 0.0000 0.0000 0.0000 0.0000 -14172.3496 2423.0259 0.0000 0.0000 530.1226 -11219.2011 89.4600 -11749.3237 -11218.0601 89.4600 194.8686 253.8576 28859.0879 194.8686 253.8576
ENERGY: 400000 0.0000 0.0000 0.0000 0.0000 -13867.6768 2252.0353 0.0000 0.0000 726.9910 -10888.6505 122.6823 -11615.6414 -10887.6565 120.1764 -986.6536 -887.4075 29271.5990 2.2075 2.3221
TCL: Running 100000 steps at 150 kelvin.
TCL: Setting parameter langevinTemp to 150
TCL: Running for 100000 steps
ETITLE: TS BOND ANGLE DIHED IMPRP ELECT VDW BOUNDARY MISC KINETIC TOTAL TEMP POTENTIAL TOTAL3 TEMPAVG PRESSURE GPRESSURE VOLUME PRESSAVG GPRESSAVG
ENERGY: 400000 0.0000 0.0000 0.0000 0.0000 -13867.6768 2252.0353 0.0000 0.0000 726.6424 -10888.9991 122.6234 -11615.6414 -10887.3644 122.6234 -952.1334 -887.9243 29271.5990 -952.1334 -887.9243
ENERGY: 500000 0.0000 0.0000 0.0000 0.0000 -13804.5635 2357.9155 0.0000 0.0000 887.1865 -10559.4616 149.7158 -11446.6481 -10556.9492 150.1549 594.4662 623.9253 29138.8843 2.4947 2.6429
TCL: Running 100000 steps at 180 kelvin.
TCL: Setting parameter langevinTemp to 180
TCL: Running for 100000 steps
ETITLE: TS BOND ANGLE DIHED IMPRP ELECT VDW BOUNDARY MISC KINETIC TOTAL TEMP POTENTIAL TOTAL3 TEMPAVG PRESSURE GPRESSURE VOLUME PRESSAVG GPRESSAVG
ENERGY: 500000 0.0000 0.0000 0.0000 0.0000 -13804.5635 2357.9155 0.0000 0.0000 886.7348 -10559.9132 149.6396 -11446.6481 -10558.1354 149.6396 584.0795 623.3812 29138.8843 584.0795 623.3812
ENERGY: 600000 0.0000 0.0000 0.0000 0.0000 -13235.5852 2055.1548 0.0000 0.0000 1083.1691 -10097.2613 182.7886 -11180.4304 -10093.9793 180.1050 -849.0473 -796.9641 29385.0027 4.2319 3.9812
TCL: Running 100000 steps at 210 kelvin.
TCL: Setting parameter langevinTemp to 210
TCL: Running for 100000 steps
ETITLE: TS BOND ANGLE DIHED IMPRP ELECT VDW BOUNDARY MISC KINETIC TOTAL TEMP POTENTIAL TOTAL3 TEMPAVG PRESSURE GPRESSURE VOLUME PRESSAVG GPRESSAVG
ENERGY: 600000 0.0000 0.0000 0.0000 0.0000 -13235.5852 2055.1548 0.0000 0.0000 1082.6389 -10097.7915 182.6991 -11180.4304 -10095.6420 182.6991 -840.5467 -797.2420 29385.0027 -840.5467 -797.2420
ENERGY: 700000 0.0000 0.0000 0.0000 0.0000 -12551.4073 1902.4711 0.0000 0.0000 1233.0644 -9415.8719 208.0839 -10648.9363 -9413.4197 210.0274 -14.0092 19.9482 29284.9286 4.2085 4.1856
TCL: Running 100000 steps at 240 kelvin.
TCL: Setting parameter langevinTemp to 240
TCL: Running for 100000 steps
ETITLE: TS BOND ANGLE DIHED IMPRP ELECT VDW BOUNDARY MISC KINETIC TOTAL TEMP POTENTIAL TOTAL3 TEMPAVG PRESSURE GPRESSURE VOLUME PRESSAVG GPRESSAVG
ENERGY: 700000 0.0000 0.0000 0.0000 0.0000 -12551.4073 1902.4711 0.0000 0.0000 1232.4476 -9416.4887 207.9798 -10648.9363 -9414.1172 207.9798 -60.8461 19.8392 29284.9286 -60.8461 19.8392
ENERGY: 800000 0.0000 0.0000 0.0000 0.0000 -11913.6946 1729.0511 0.0000 0.0000 1441.7220 -8742.9216 243.2956 -10184.6436 -8740.7936 239.8240 201.0774 338.1435 29161.1205 4.4170 4.5740
TCL: Running 100000 steps at 270 kelvin.
TCL: Setting parameter langevinTemp to 270
TCL: Running for 100000 steps
ETITLE: TS BOND ANGLE DIHED IMPRP ELECT VDW BOUNDARY MISC KINETIC TOTAL TEMP POTENTIAL TOTAL3 TEMPAVG PRESSURE GPRESSURE VOLUME PRESSAVG GPRESSAVG
ENERGY: 800000 0.0000 0.0000 0.0000 0.0000 -11913.6946 1729.0511 0.0000 0.0000 1440.9741 -8743.6695 243.1694 -10184.6436 -8741.3587 243.1694 249.1618 336.7672 29161.1205 249.1618 336.7672
ENERGY: 900000 0.0000 0.0000 0.0000 0.0000 -11338.0760 1528.4187 0.0000 0.0000 1594.9456 -8214.7116 269.1526 -9809.6572 -8210.8885 269.2712 -529.3460 -360.1905 29864.0630 3.4470 3.4801
TCL: Running 1000000 steps at 300 kelvin.
TCL: Setting parameter langevinTemp to 300
TCL: Running for 1000000 steps
ETITLE: TS BOND ANGLE DIHED IMPRP ELECT VDW BOUNDARY MISC KINETIC TOTAL TEMP POTENTIAL TOTAL3 TEMPAVG PRESSURE GPRESSURE VOLUME PRESSAVG GPRESSAVG
ENERGY: 900000 0.0000 0.0000 0.0000 0.0000 -11338.0760 1528.4187 0.0000 0.0000 1594.1114 -8215.5459 269.0118 -9809.6572 -8213.1036 269.0118 -435.6846 -360.3998 29864.0630 -435.6846 -360.3998
ENERGY: 1100000 0.0000 0.0000 0.0000 0.0000 -10978.2651 1495.0651 0.0000 0.0000 1771.7250 -7711.4751 298.9848 -9483.2000 -7710.2061 299.8339 34.9973 94.8241 30706.7085 3.3732 3.5044
ENERGY: 1300000 0.0000 0.0000 0.0000 0.0000 -10875.0234 1446.5561 0.0000 0.0000 1759.2818 -7669.1855 296.8849 -9428.4673 -7665.7569 300.1514 -172.5173 -120.2654 30864.9372 2.8221 2.8860
ENERGY: 1500000 0.0000 0.0000 0.0000 0.0000 -10853.0827 1460.9523 0.0000 0.0000 1797.3730 -7594.7574 303.3130 -9392.1304 -7590.4814 300.2260 108.6711 186.2925 30655.3822 3.3622 3.3998
ENERGY: 1700000 0.0000 0.0000 0.0000 0.0000 -10863.2536 1460.8219 0.0000 0.0000 1810.0288 -7592.4029 305.4487 -9402.4318 -7588.2807 300.2843 359.7459 441.8042 30237.7510 3.0847 3.1515
ENERGY: 1900000 0.0000 0.0000 0.0000 0.0000 -10761.2121 1343.2984 0.0000 0.0000 1771.5308 -7646.3829 298.9520 -9417.9137 -7643.2718 300.3975 -1063.1580 -956.9135 31066.8903 2.3443 2.4351
TCL: Exiting due to exit command.
