Info: SIMULATION PARAMETERS:
Info: TIMESTEP               2
Info: NUMBER OF STEPS        0
Info: STEPS PER CYCLE        10
Info: PERIODIC CELL BASIS 1  36.592 0 0
Info: PERIODIC CELL BASIS 2  0 35.411 0
Info: PERIODIC CELL BASIS 3  0 0 34.954
Info: PERIODIC CELL CENTER   0 0 0
Info: WRAPPING WATERS AROUND PERIODIC BOUNDARIES ON OUTPUT.
Info: WRAPPING ALL CLUSTERS AROUND PERIODIC BOUNDARIES ON OUTPUT.
Info: FIRST LDB TIMESTEP     50
Info: LAST LDB TIMESTEP     -1
Info: HOM BACKGROUND SCALING 1
Info: PME BACKGROUND SCALING 1
Info: MIN ATOMS PER PATCH    40
Info: EMPTY PATCH LOAD       40 ATOMS
Info: INITIAL TEMPERATURE    300
Info: CENTER OF MASS MOVING INITIALLY? NO
Info: DIELECTRIC             1
Info: EXCLUDE                SCALED ONE-FOUR
Info: 1-4 ELECTROSTATICS SCALED BY 0.833333
Info: MODIFIED 1-4 VDW PARAMETERS WILL BE USED
Info: DCD FILENAME           mobley_4850657_equil.dcd
Info: DCD FREQUENCY          100000
Info: DCD FIRST STEP         100000
Info: DCD FILE WILL CONTAIN UNIT CELL DATA
Info: XST FILENAME           mobley_4850657_equil.xst
Info: XST FREQUENCY          100000
Info: NO VELOCITY DCD OUTPUT
Info: NO FORCE DCD OUTPUT
Info: OUTPUT FILENAME        mobley_4850657_equil
Info: BINARY OUTPUT FILES WILL BE USED
Info: RESTART FILENAME       mobley_4850657_equil.restart
Info: RESTART FREQUENCY      100000
Info: BINARY RESTART FILES WILL BE USED
Info: CUTOFF                 9
Info: PAIRLIST DISTANCE      11
Info: PAIRLIST SHRINK RATE   0.01
Info: PAIRLIST GROW RATE     0.01
Info: PAIRLIST TRIGGER       0.3
Info: PAIRLISTS PER CYCLE    2
Info: PAIRLISTS ENABLED
Info: MARGIN                 8
Info: HYDROGEN GROUP CUTOFF  2.5
Info: PATCH DIMENSION        21.5
Info: ENERGY OUTPUT STEPS    100000
Info: ENERGY EVALUATION STEPS    100000
Info: OUTPUT ENERGY PRECISION 4
Info: CROSSTERM ENERGY INCLUDED IN DIHEDRAL
Info: TIMING OUTPUT STEPS    1000000
Info: PRESSURE OUTPUT STEPS  100000
Info: FIXED ATOMS ACTIVE
Info: LANGEVIN DYNAMICS ACTIVE
Info: LANGEVIN TEMPERATURE   30
Info: LANGEVIN USING BBK INTEGRATOR
Info: LANGEVIN DAMPING COEFFICIENT IS 1 INVERSE PS
Info: LANGEVIN DYNAMICS APPLIED TO HYDROGENS
Info: LANGEVIN PISTON PRESSURE CONTROL ACTIVE
Info:        TARGET PRESSURE IS 1.01325 BAR
Info:     OSCILLATION PERIOD IS 50 FS
Info:             DECAY TIME IS 25 FS
Info:     PISTON TEMPERATURE IS 300 K
Info:       PRESSURE CONTROL IS GROUP-BASED
Info:    INITIAL STRAIN RATE IS 0 0 0
Info:       CELL FLUCTUATION IS ISOTROPIC
Info: PARTICLE MESH EWALD (PME) ACTIVE
Info: PME TOLERANCE               1e-06
Info: PME EWALD COEFFICIENT       0.348832
Info: PME INTERPOLATION ORDER     4
Info: PME GRID DIMENSIONS         40 36 36
Info: PME MAXIMUM GRID SPACING    1
Info: FULL ELECTROSTATIC EVALUATION FREQUENCY      2
Info: USING VERLET I (r-RESPA) MTS SCHEME.
Info: C1 SPLITTING OF LONG RANGE ELECTROSTATICS
Info: PLACING ATOMS IN PATCHES BY HYDROGEN GROUPS
Info: RIGID BONDS TO HYDROGEN : ALL
Info:         ERROR TOLERANCE : 1e-08
Info:          MAX ITERATIONS : 100
Info: RIGID WATER USING SETTLE ALGORITHM
Info: RANDOM NUMBER SEED     1743674879
Info: USE HYDROGEN BONDS?    NO
Info: Using AMBER format force field!
Info: AMBER PARM FILE        mobley_4850657.prmtop
Info: COORDINATE PDB         mobley_4850657.pdb
Info: Exclusions will be read from PARM file!
Info: SCNB (VDW SCALING)     2
Info: USING ARITHMETIC MEAN TO COMBINE L-J SIGMA PARAMETERS
Info: BINARY COORDINATES     mobley_4850657_min.coor
Info: SUMMARY OF PARAMETERS:
Info: 6 BONDS
Info: 6 ANGLES
Info:   6 HARMONIC
Info:   0 COSINE-BASED
Info: 1 DIHEDRAL
Info: 0 IMPROPER
Info: 0 CROSSTERM
Info: 0 VDW
Info: 28 VDW_PAIRS
Info: 0 NBTHOLE_PAIRS
Info: STRUCTURE SUMMARY:
Info: 2999 ATOMS
Info: 2998 BONDS
Info: 12 ANGLES
Info: 9 DIHEDRALS
Info: 0 IMPROPERS
Info: 0 CROSSTERMS
Info: 3019 EXCLUSIONS
Info: 8 FIXED ATOMS
Info: 2994 RIGID BONDS
Info: 3 RIGID BONDS BETWEEN FIXED ATOMS
Info: 5982 DEGREES OF FREEDOM
Info: 1002 HYDROGEN GROUPS
Info: 4 ATOMS IN LARGEST HYDROGEN GROUP
Info: 1002 MIGRATION GROUPS
Info: 4 ATOMS IN LARGEST MIGRATION GROUP
Info: 5 HYDROGEN GROUPS WITH ALL ATOMS FIXED
Info: TOTAL MASS = 18076.5 amu
Info: TOTAL CHARGE = 9.9957e-05 e
Info: MASS DENSITY = 0.662754 g/cm^3
Info: ATOM DENSITY = 0.0662148 atoms/A^3
Info: ADDED 0 IMPLICIT EXCLUSIONS
Info: NONBONDED TABLE R-SQUARED SPACING: 0.0625
Info: NONBONDED TABLE SIZE: 705 POINTS
Info: REMOVING COM VELOCITY 0.133942 -0.0277174 0.0834352
TCL: Running for 100000 steps
ETITLE: TS BOND ANGLE DIHED IMPRP ELECT VDW BOUNDARY MISC KINETIC TOTAL TEMP POTENTIAL TOTAL3 TEMPAVG PRESSURE GPRESSURE VOLUME PRESSAVG GPRESSAVG
ENERGY: 0 0.0000 0.0000 0.0000 0.0000 -14062.1505 2443.7054 0.0000 0.0000 1749.5202 -9868.9249 294.3493 -11618.4452 -9868.5647 294.3493 404.8471 434.4673 45291.9710 404.8471 434.4673
ENERGY: 100000 0.0000 0.0000 0.0000 0.0000 -14535.1806 2377.3623 0.0000 0.0000 180.5413 -11977.2770 30.3753 -12157.8183 -11976.7190 30.8618 -1256.8262 -1202.9043 29575.2848 3.1653 3.1633
TCL: Running 100000 steps at 60 kelvin.
TCL: Setting parameter langevinTemp to 60
TCL: Running for 100000 steps
ETITLE: TS BOND ANGLE DIHED IMPRP ELECT VDW BOUNDARY MISC KINETIC TOTAL TEMP POTENTIAL TOTAL3 TEMPAVG PRESSURE GPRESSURE VOLUME PRESSAVG GPRESSAVG
ENERGY: 100000 0.0000 0.0000 0.0000 0.0000 -14535.1806 2377.3623 0.0000 0.0000 180.4520 -11977.3663 30.3603 -12157.8183 -11976.9429 30.3603 -1248.9766 -1202.7370 29575.2848 -1248.9766 -1202.7370
ENERGY: 200000 0.0000 0.0000 0.0000 0.0000 -14627.0672 2519.8871 0.0000 0.0000 344.5926 -11762.5875 57.9762 -12107.1801 -11761.9952 59.9580 366.0863 399.0070 29041.0858 3.9089 3.8707
TCL: Running 100000 steps at 90 kelvin.
TCL: Setting parameter langevinTemp to 90
TCL: Running for 100000 steps
ETITLE: TS BOND ANGLE DIHED IMPRP ELECT VDW BOUNDARY MISC KINETIC TOTAL TEMP POTENTIAL TOTAL3 TEMPAVG PRESSURE GPRESSURE VOLUME PRESSAVG GPRESSAVG
ENERGY: 200000 0.0000 0.0000 0.0000 0.0000 -14627.0672 2519.8871 0.0000 0.0000 344.4117 -11762.7684 57.9458 -12107.1801 -11761.9705 57.9458 354.6450 398.4488 29041.0858 354.6450 398.4488
ENERGY: 300000 0.0000 0.0000 0.0000 0.0000 -14223.6794 2267.8205 0.0000 0.0000 556.6831 -11399.1758 93.6595 -11955.8589 -11397.6612 89.8689 -1105.9217 -1058.6058 29376.4416 3.9883 3.9418
TCL: Running 100000 steps at 120 kelvin.
TCL: Setting parameter langevinTemp to 120
TCL: Running for 100000 steps
ETITLE: TS BOND ANGLE DIHED IMPRP ELECT VDW BOUNDARY MISC KINETIC TOTAL TEMP POTENTIAL TOTAL3 TEMPAVG PRESSURE GPRESSURE VOLUME PRESSAVG GPRESSAVG
ENERGY: 300000 0.0000 0.0000 0.0000 0.0000 -14223.6794 2267.8205 0.0000 0.0000 556.4198 -11399.4391 93.6152 -11955.8589 -11398.3194 93.6152 -1104.7125 -1058.5581 29376.4416 -1104.7125 -1058.5581
ENERGY: 400000 0.0000 0.0000 0.0000 0.0000 -14194.1648 2377.9111 0.0000 0.0000 744.7779 -11071.4758 125.3057 -11816.2537 -11069.6496 120.1251 96.8603 136.4840 29268.9458 3.5107 3.5699
TCL: Running 100000 steps at 150 kelvin.
TCL: Setting parameter langevinTemp to 150
TCL: Running for 100000 steps
ETITLE: TS BOND ANGLE DIHED IMPRP ELECT VDW BOUNDARY MISC KINETIC TOTAL TEMP POTENTIAL TOTAL3 TEMPAVG PRESSURE GPRESSURE VOLUME PRESSAVG GPRESSAVG
ENERGY: 400000 0.0000 0.0000 0.0000 0.0000 -14194.1648 2377.9111 0.0000 0.0000 744.4132 -11071.8405 125.2443 -11816.2537 -11070.2375 125.2443 99.5993 137.1994 29268.9458 99.5993 137.1994
ENERGY: 500000 0.0000 0.0000 0.0000 0.0000 -14002.3534 2333.8832 0.0000 0.0000 900.3299 -10768.1402 151.4766 -11668.4701 -10765.3591 149.7899 194.7749 252.5626 29508.4228 4.4065 4.3477
TCL: Running 100000 steps at 180 kelvin.
TCL: Setting parameter langevinTemp to 180
TCL: Running for 100000 steps
ETITLE: TS BOND ANGLE DIHED IMPRP ELECT VDW BOUNDARY MISC KINETIC TOTAL TEMP POTENTIAL TOTAL3 TEMPAVG PRESSURE GPRESSURE VOLUME PRESSAVG GPRESSAVG
ENERGY: 500000 0.0000 0.0000 0.0000 0.0000 -14002.3534 2333.8832 0.0000 0.0000 899.8924 -10768.5778 151.4030 -11668.4701 -10766.8380 151.4030 195.0512 252.1900 29508.4228 195.0512 252.1900
ENERGY: 600000 0.0000 0.0000 0.0000 0.0000 -13595.4557 2196.8464 0.0000 0.0000 1095.3240 -10303.2853 184.2836 -11398.6094 -10300.5335 180.1701 296.2819 289.9239 29508.2556 4.1000 4.1425
TCL: Running 100000 steps at 210 kelvin.
TCL: Setting parameter langevinTemp to 210
TCL: Running for 100000 steps
ETITLE: TS BOND ANGLE DIHED IMPRP ELECT VDW BOUNDARY MISC KINETIC TOTAL TEMP POTENTIAL TOTAL3 TEMPAVG PRESSURE GPRESSURE VOLUME PRESSAVG GPRESSAVG
ENERGY: 600000 0.0000 0.0000 0.0000 0.0000 -13595.4557 2196.8464 0.0000 0.0000 1094.7910 -10303.8184 184.1939 -11398.6094 -10301.9112 184.1939 223.1723 289.3797 29508.2556 223.1723 289.3797
ENERGY: 700000 0.0000 0.0000 0.0000 0.0000 -12756.3717 1904.3766 0.0000 0.0000 1255.7796 -9596.2155 211.2795 -10851.9951 -9592.8851 209.9700 -229.3710 -212.6791 29508.7076 2.4285 2.3835
TCL: Running 100000 steps at 240 kelvin.
TCL: Setting parameter langevinTemp to 240
TCL: Running for 100000 steps
ETITLE: TS BOND ANGLE DIHED IMPRP ELECT VDW BOUNDARY MISC KINETIC TOTAL TEMP POTENTIAL TOTAL3 TEMPAVG PRESSURE GPRESSURE VOLUME PRESSAVG GPRESSAVG
ENERGY: 700000 0.0000 0.0000 0.0000 0.0000 -12756.3717 1904.3766 0.0000 0.0000 1255.1739 -9596.8213 211.1776 -10851.9951 -9594.7980 211.1776 -295.6809 -212.0038 29508.7076 -295.6809 -212.0038
ENERGY: 800000 0.0000 0.0000 0.0000 0.0000 -12210.2671 1778.0255 0.0000 0.0000 1456.8572 -8975.3845 245.1100 -10432.2417 -8972.2499 239.6925 404.6340 507.1834 29251.0955 3.7634 3.7070
TCL: Running 100000 steps at 270 kelvin.
TCL: Setting parameter langevinTemp to 270
TCL: Running for 100000 steps
ETITLE: TS BOND ANGLE DIHED IMPRP ELECT VDW BOUNDARY MISC KINETIC TOTAL TEMP POTENTIAL TOTAL3 TEMPAVG PRESSURE GPRESSURE VOLUME PRESSAVG GPRESSAVG
ENERGY: 800000 0.0000 0.0000 0.0000 0.0000 -12210.2671 1778.0255 0.0000 0.0000 1456.1370 -8976.1047 244.9888 -10432.2417 -8974.3588 244.9888 414.3026 508.7998 29251.0955 414.3026 508.7998
ENERGY: 900000 0.0000 0.0000 0.0000 0.0000 -11618.5352 1578.5401 0.0000 0.0000 1596.7730 -8443.2221 268.6502 -10039.9951 -8441.0541 270.4802 -331.3297 -258.9594 30506.7583 3.2058 3.2968
TCL: Running 1000000 steps at 300 kelvin.
TCL: Setting parameter langevinTemp to 300
TCL: Running for 1000000 steps
ETITLE: TS BOND ANGLE DIHED IMPRP ELECT VDW BOUNDARY MISC KINETIC TOTAL TEMP POTENTIAL TOTAL3 TEMPAVG PRESSURE GPRESSURE VOLUME PRESSAVG GPRESSAVG
ENERGY: 900000 0.0000 0.0000 0.0000 0.0000 -11618.5352 1578.5401 0.0000 0.0000 1595.9383 -8444.0568 268.5098 -10039.9951 -8441.7196 268.5098 -351.3393 -258.4530 30506.7583 -351.3393 -258.4530
ENERGY: 1100000 0.0000 0.0000 0.0000 0.0000 -11114.6423 1502.2921 0.0000 0.0000 1811.2425 -7801.1077 304.7338 -9612.3502 -7798.5663 299.9332 462.3917 528.4541 30711.6690 4.0162 4.0675
ENERGY: 1300000 0.0000 0.0000 0.0000 0.0000 -11301.2716 1632.9538 0.0000 0.0000 1828.4328 -7839.8850 307.6260 -9668.3178 -7836.7571 300.4130 1283.5202 1333.1887 30586.1545 2.6248 2.4895
ENERGY: 1500000 0.0000 0.0000 0.0000 0.0000 -11179.1710 1485.2077 0.0000 0.0000 1861.5349 -7832.4284 313.1952 -9693.9633 -7828.3703 299.6637 194.4297 241.3875 30542.5245 2.6526 2.7278
ENERGY: 1700000 0.0000 0.0000 0.0000 0.0000 -11111.5598 1507.0729 0.0000 0.0000 1749.2729 -7855.2140 294.3077 -9604.4869 -7855.5604 300.7426 553.9168 665.3119 30326.4525 2.8149 3.0393
ENERGY: 1900000 0.0000 0.0000 0.0000 0.0000 -11186.7897 1514.3797 0.0000 0.0000 1788.7151 -7883.6949 300.9436 -9672.4100 -7880.2900 300.2908 462.6703 582.1232 30268.5416 2.7702 2.6861
TCL: Exiting due to exit command.
