Info: SIMULATION PARAMETERS:
Info: TIMESTEP               2
Info: NUMBER OF STEPS        0
Info: STEPS PER CYCLE        10
Info: PERIODIC CELL BASIS 1  36.592 0 0
Info: PERIODIC CELL BASIS 2  0 34.26 0
Info: PERIODIC CELL BASIS 3  0 0 34.954
Info: PERIODIC CELL CENTER   0 0 0
Info: WRAPPING WATERS AROUND PERIODIC BOUNDARIES ON OUTPUT.
Info: WRAPPING ALL CLUSTERS AROUND PERIODIC BOUNDARIES ON OUTPUT.
Info: FIRST LDB TIMESTEP     50
Info: LAST LDB TIMESTEP     -1
Info: HOM BACKGROUND SCALING 1
Info: PME BACKGROUND SCALING 1
Info: MIN ATOMS PER PATCH    40
Info: EMPTY PATCH LOAD       40 ATOMS
Info: INITIAL TEMPERATURE    300
Info: CENTER OF MASS MOVING INITIALLY? NO
Info: DIELECTRIC             1
Info: EXCLUDE                SCALED ONE-FOUR
Info: 1-4 ELECTROSTATICS SCALED BY 0.833333
Info: MODIFIED 1-4 VDW PARAMETERS WILL BE USED
Info: DCD FILENAME           mobley_9201263_equil.dcd
Info: DCD FREQUENCY          100000
Info: DCD FIRST STEP         100000
Info: DCD FILE WILL CONTAIN UNIT CELL DATA
Info: XST FILENAME           mobley_9201263_equil.xst
Info: XST FREQUENCY          100000
Info: NO VELOCITY DCD OUTPUT
Info: NO FORCE DCD OUTPUT
Info: OUTPUT FILENAME        mobley_9201263_equil
Info: BINARY OUTPUT FILES WILL BE USED
Info: RESTART FILENAME       mobley_9201263_equil.restart
Info: RESTART FREQUENCY      100000
Info: BINARY RESTART FILES WILL BE USED
Info: CUTOFF                 9
Info: PAIRLIST DISTANCE      11
Info: PAIRLIST SHRINK RATE   0.01
Info: PAIRLIST GROW RATE     0.01
Info: PAIRLIST TRIGGER       0.3
Info: PAIRLISTS PER CYCLE    2
Info: PAIRLISTS ENABLED
Info: MARGIN                 8
Info: HYDROGEN GROUP CUTOFF  2.5
Info: PATCH DIMENSION        21.5
Info: ENERGY OUTPUT STEPS    100000
Info: ENERGY EVALUATION STEPS    100000
Info: OUTPUT ENERGY PRECISION 4
Info: CROSSTERM ENERGY INCLUDED IN DIHEDRAL
Info: TIMING OUTPUT STEPS    1000000
Info: PRESSURE OUTPUT STEPS  100000
Info: FIXED ATOMS ACTIVE
Info: LANGEVIN DYNAMICS ACTIVE
Info: LANGEVIN TEMPERATURE   30
Info: LANGEVIN USING BBK INTEGRATOR
Info: LANGEVIN DAMPING COEFFICIENT IS 1 INVERSE PS
Info: LANGEVIN DYNAMICS APPLIED TO HYDROGENS
Info: LANGEVIN PISTON PRESSURE CONTROL ACTIVE
Info:        TARGET PRESSURE IS 1.01325 BAR
Info:     OSCILLATION PERIOD IS 50 FS
Info:             DECAY TIME IS 25 FS
Info:     PISTON TEMPERATURE IS 300 K
Info:       PRESSURE CONTROL IS GROUP-BASED
Info:    INITIAL STRAIN RATE IS 0 0 0
Info:       CELL FLUCTUATION IS ISOTROPIC
Info: PARTICLE MESH EWALD (PME) ACTIVE
Info: PME TOLERANCE               1e-06
Info: PME EWALD COEFFICIENT       0.348832
Info: PME INTERPOLATION ORDER     4
Info: PME GRID DIMENSIONS         40 36 36
Info: PME MAXIMUM GRID SPACING    1
Info: FULL ELECTROSTATIC EVALUATION FREQUENCY      2
Info: USING VERLET I (r-RESPA) MTS SCHEME.
Info: C1 SPLITTING OF LONG RANGE ELECTROSTATICS
Info: PLACING ATOMS IN PATCHES BY HYDROGEN GROUPS
Info: RIGID BONDS TO HYDROGEN : ALL
Info:         ERROR TOLERANCE : 1e-08
Info:          MAX ITERATIONS : 100
Info: RIGID WATER USING SETTLE ALGORITHM
Info: RANDOM NUMBER SEED     1743900932
Info: USE HYDROGEN BONDS?    NO
Info: Using AMBER format force field!
Info: AMBER PARM FILE        mobley_9201263.prmtop
Info: COORDINATE PDB         mobley_9201263.pdb
Info: Exclusions will be read from PARM file!
Info: SCNB (VDW SCALING)     2
Info: USING ARITHMETIC MEAN TO COMBINE L-J SIGMA PARAMETERS
Info: BINARY COORDINATES     mobley_9201263_min.coor
Info: SUMMARY OF PARAMETERS:
Info: 7 BONDS
Info: 8 ANGLES
Info:   8 HARMONIC
Info:   0 COSINE-BASED
Info: 3 DIHEDRAL
Info: 0 IMPROPER
Info: 0 CROSSTERM
Info: 0 VDW
Info: 28 VDW_PAIRS
Info: 0 NBTHOLE_PAIRS
Info: STRUCTURE SUMMARY:
Info: 2931 ATOMS
Info: 2930 BONDS
Info: 19 ANGLES
Info: 15 DIHEDRALS
Info: 0 IMPROPERS
Info: 0 CROSSTERMS
Info: 2964 EXCLUSIONS
Info: 12 FIXED ATOMS
Info: 2925 RIGID BONDS
Info: 6 RIGID BONDS BETWEEN FIXED ATOMS
Info: 5838 DEGREES OF FREEDOM
Info: 979 HYDROGEN GROUPS
Info: 4 ATOMS IN LARGEST HYDROGEN GROUP
Info: 979 MIGRATION GROUPS
Info: 4 ATOMS IN LARGEST MIGRATION GROUP
Info: 6 HYDROGEN GROUPS WITH ALL ATOMS FIXED
Info: TOTAL MASS = 17639.7 amu
Info: TOTAL CHARGE = 0.000399966 e
Info: MASS DENSITY = 0.668467 g/cm^3
Info: ATOM DENSITY = 0.0668876 atoms/A^3
Info: ADDED 0 IMPLICIT EXCLUSIONS
Info: NONBONDED TABLE R-SQUARED SPACING: 0.0625
Info: NONBONDED TABLE SIZE: 705 POINTS
Info: REMOVING COM VELOCITY 0.000434852 -0.0950836 0.0210175
TCL: Running for 100000 steps
ETITLE: TS BOND ANGLE DIHED IMPRP ELECT VDW BOUNDARY MISC KINETIC TOTAL TEMP POTENTIAL TOTAL3 TEMPAVG PRESSURE GPRESSURE VOLUME PRESSAVG GPRESSAVG
ENERGY: 0 0.0000 0.0000 0.0000 0.0000 -13782.7489 2342.9473 0.0000 0.0000 1770.0592 -9669.7424 305.1505 -11439.8016 -9669.3625 305.1505 173.9178 202.5493 43819.7997 173.9178 202.5493
ENERGY: 100000 0.0000 0.0000 0.0000 0.0000 -14196.4943 2336.2805 0.0000 0.0000 169.8535 -11690.3603 29.2820 -11860.2139 -11690.1726 30.8695 -977.4399 -939.7432 30189.1023 4.1214 4.0632
TCL: Running 100000 steps at 60 kelvin.
TCL: Setting parameter langevinTemp to 60
TCL: Running for 100000 steps
ETITLE: TS BOND ANGLE DIHED IMPRP ELECT VDW BOUNDARY MISC KINETIC TOTAL TEMP POTENTIAL TOTAL3 TEMPAVG PRESSURE GPRESSURE VOLUME PRESSAVG GPRESSAVG
ENERGY: 100000 0.0000 0.0000 0.0000 0.0000 -14196.4943 2336.2805 0.0000 0.0000 169.7672 -11690.4467 29.2671 -11860.2139 -11690.0352 29.2671 -990.7476 -939.7996 30189.1023 -990.7476 -939.7996
ENERGY: 200000 0.0000 0.0000 0.0000 0.0000 -14225.7625 2411.5501 0.0000 0.0000 348.1814 -11466.0310 60.0250 -11814.2124 -11465.0665 59.9693 -27.2721 35.0889 29412.8603 3.4587 3.5448
TCL: Running 100000 steps at 90 kelvin.
TCL: Setting parameter langevinTemp to 90
TCL: Running for 100000 steps
ETITLE: TS BOND ANGLE DIHED IMPRP ELECT VDW BOUNDARY MISC KINETIC TOTAL TEMP POTENTIAL TOTAL3 TEMPAVG PRESSURE GPRESSURE VOLUME PRESSAVG GPRESSAVG
ENERGY: 200000 0.0000 0.0000 0.0000 0.0000 -14225.7625 2411.5501 0.0000 0.0000 348.0090 -11466.2034 59.9952 -11814.2124 -11465.6099 59.9952 -0.7618 35.0676 29412.8603 -0.7618 35.0676
ENERGY: 300000 0.0000 0.0000 0.0000 0.0000 -14154.5482 2390.6872 0.0000 0.0000 507.9974 -11255.8636 87.5765 -11763.8610 -11254.7678 89.6868 -12.5055 32.0324 29194.2788 4.6708 4.5717
TCL: Running 100000 steps at 120 kelvin.
TCL: Setting parameter langevinTemp to 120
TCL: Running for 100000 steps
ETITLE: TS BOND ANGLE DIHED IMPRP ELECT VDW BOUNDARY MISC KINETIC TOTAL TEMP POTENTIAL TOTAL3 TEMPAVG PRESSURE GPRESSURE VOLUME PRESSAVG GPRESSAVG
ENERGY: 300000 0.0000 0.0000 0.0000 0.0000 -14154.5482 2390.6872 0.0000 0.0000 507.7348 -11256.1261 87.5313 -11763.8610 -11255.1189 87.5313 -14.1604 32.7975 29194.2788 -14.1604 32.7975
ENERGY: 400000 0.0000 0.0000 0.0000 0.0000 -13909.4056 2270.8428 0.0000 0.0000 721.4388 -10917.1240 124.3729 -11638.5628 -10915.8298 119.9029 -420.3403 -362.2143 28802.5553 3.1704 3.1707
TCL: Running 100000 steps at 150 kelvin.
TCL: Setting parameter langevinTemp to 150
TCL: Running for 100000 steps
ETITLE: TS BOND ANGLE DIHED IMPRP ELECT VDW BOUNDARY MISC KINETIC TOTAL TEMP POTENTIAL TOTAL3 TEMPAVG PRESSURE GPRESSURE VOLUME PRESSAVG GPRESSAVG
ENERGY: 400000 0.0000 0.0000 0.0000 0.0000 -13909.4056 2270.8428 0.0000 0.0000 721.0806 -10917.4822 124.3112 -11638.5628 -10916.1932 124.3112 -414.5899 -362.8577 28802.5553 -414.5899 -362.8577
ENERGY: 500000 0.0000 0.0000 0.0000 0.0000 -13713.9188 2236.1758 0.0000 0.0000 885.4133 -10592.3298 152.6414 -11477.7430 -10590.6210 150.1980 -6.6886 78.5017 28619.4886 4.2680 4.3807
TCL: Running 100000 steps at 180 kelvin.
TCL: Setting parameter langevinTemp to 180
TCL: Running for 100000 steps
ETITLE: TS BOND ANGLE DIHED IMPRP ELECT VDW BOUNDARY MISC KINETIC TOTAL TEMP POTENTIAL TOTAL3 TEMPAVG PRESSURE GPRESSURE VOLUME PRESSAVG GPRESSAVG
ENERGY: 500000 0.0000 0.0000 0.0000 0.0000 -13713.9188 2236.1758 0.0000 0.0000 884.9875 -10592.7556 152.5680 -11477.7430 -10590.7375 152.5680 30.7644 79.5680 28619.4886 30.7644 79.5680
ENERGY: 600000 0.0000 0.0000 0.0000 0.0000 -13317.0116 2139.3421 0.0000 0.0000 1011.4489 -10166.2206 174.3694 -11177.6695 -10164.5748 179.7520 510.3211 568.7540 28343.4376 3.0195 2.9396
TCL: Running 100000 steps at 210 kelvin.
TCL: Setting parameter langevinTemp to 210
TCL: Running for 100000 steps
ETITLE: TS BOND ANGLE DIHED IMPRP ELECT VDW BOUNDARY MISC KINETIC TOTAL TEMP POTENTIAL TOTAL3 TEMPAVG PRESSURE GPRESSURE VOLUME PRESSAVG GPRESSAVG
ENERGY: 600000 0.0000 0.0000 0.0000 0.0000 -13317.0116 2139.3421 0.0000 0.0000 1010.9127 -10166.7568 174.2769 -11177.6695 -10164.6664 174.2769 507.1840 567.5061 28343.4376 507.1840 567.5061
ENERGY: 700000 0.0000 0.0000 0.0000 0.0000 -12683.3867 1956.2727 0.0000 0.0000 1189.3310 -9537.7830 205.0355 -10727.1140 -9534.8334 209.8085 476.5861 494.2772 28619.3892 3.1760 3.0830
TCL: Running 100000 steps at 240 kelvin.
TCL: Setting parameter langevinTemp to 240
TCL: Running for 100000 steps
ETITLE: TS BOND ANGLE DIHED IMPRP ELECT VDW BOUNDARY MISC KINETIC TOTAL TEMP POTENTIAL TOTAL3 TEMPAVG PRESSURE GPRESSURE VOLUME PRESSAVG GPRESSAVG
ENERGY: 700000 0.0000 0.0000 0.0000 0.0000 -12683.3867 1956.2727 0.0000 0.0000 1188.7557 -9538.3583 204.9363 -10727.1140 -9536.5864 204.9363 428.5340 494.7537 28619.3892 428.5340 494.7537
ENERGY: 800000 0.0000 0.0000 0.0000 0.0000 -11876.8805 1631.6290 0.0000 0.0000 1420.5737 -8824.6779 244.9007 -10245.2516 -8820.2507 239.5711 -344.5196 -284.9968 28715.3068 2.9483 2.9610
TCL: Running 100000 steps at 270 kelvin.
TCL: Setting parameter langevinTemp to 270
TCL: Running for 100000 steps
ETITLE: TS BOND ANGLE DIHED IMPRP ELECT VDW BOUNDARY MISC KINETIC TOTAL TEMP POTENTIAL TOTAL3 TEMPAVG PRESSURE GPRESSURE VOLUME PRESSAVG GPRESSAVG
ENERGY: 800000 0.0000 0.0000 0.0000 0.0000 -11876.8805 1631.6290 0.0000 0.0000 1419.8989 -8825.3527 244.7844 -10245.2516 -8822.6104 244.7844 -370.5872 -283.7039 28715.3068 -370.5872 -283.7039
ENERGY: 900000 0.0000 0.0000 0.0000 0.0000 -11465.9040 1591.0431 0.0000 0.0000 1619.9189 -8254.9420 279.2670 -9874.8608 -8251.1732 269.9783 377.5334 500.8613 29086.7966 3.2759 3.2468
TCL: Running 1000000 steps at 300 kelvin.
TCL: Setting parameter langevinTemp to 300
TCL: Running for 1000000 steps
ETITLE: TS BOND ANGLE DIHED IMPRP ELECT VDW BOUNDARY MISC KINETIC TOTAL TEMP POTENTIAL TOTAL3 TEMPAVG PRESSURE GPRESSURE VOLUME PRESSAVG GPRESSAVG
ENERGY: 900000 0.0000 0.0000 0.0000 0.0000 -11465.9040 1591.0431 0.0000 0.0000 1619.1407 -8255.7201 279.1328 -9874.8608 -8253.1403 279.1328 423.0653 499.8984 29086.7966 423.0653 499.8984
ENERGY: 1100000 0.0000 0.0000 0.0000 0.0000 -10966.0936 1431.5428 0.0000 0.0000 1819.2885 -7715.2624 313.6374 -9534.5508 -7714.2984 300.6511 -227.5748 -148.0440 30322.8414 3.3469 3.3358
ENERGY: 1300000 0.0000 0.0000 0.0000 0.0000 -10933.9450 1437.9548 0.0000 0.0000 1735.3643 -7760.6259 299.1693 -9495.9902 -7758.2967 300.6468 -29.4778 3.0140 30376.3674 3.5432 3.5802
ENERGY: 1500000 0.0000 0.0000 0.0000 0.0000 -10895.3054 1357.5159 0.0000 0.0000 1755.1634 -7782.6261 302.5825 -9537.7894 -7779.8566 299.9438 -785.1145 -691.9833 30283.3769 3.2793 3.3912
ENERGY: 1700000 0.0000 0.0000 0.0000 0.0000 -11023.6042 1492.8465 0.0000 0.0000 1695.7098 -7835.0479 292.3330 -9530.7577 -7834.5536 300.2064 223.5128 335.3682 30253.7900 2.9365 2.8930
ENERGY: 1900000 0.0000 0.0000 0.0000 0.0000 -10787.1808 1330.3013 0.0000 0.0000 1739.5087 -7717.3708 299.8837 -9456.8795 -7713.9577 300.0586 -757.7844 -691.8456 30415.4700 4.0124 3.6136
TCL: Exiting due to exit command.
