Info: SIMULATION PARAMETERS:
Info: TIMESTEP               2
Info: NUMBER OF STEPS        0
Info: STEPS PER CYCLE        10
Info: PERIODIC CELL BASIS 1  37.435 0 0
Info: PERIODIC CELL BASIS 2  0 36.032 0
Info: PERIODIC CELL BASIS 3  0 0 31.855
Info: PERIODIC CELL CENTER   0 0 0
Info: WRAPPING WATERS AROUND PERIODIC BOUNDARIES ON OUTPUT.
Info: WRAPPING ALL CLUSTERS AROUND PERIODIC BOUNDARIES ON OUTPUT.
Info: FIRST LDB TIMESTEP     50
Info: LAST LDB TIMESTEP     -1
Info: HOM BACKGROUND SCALING 1
Info: PME BACKGROUND SCALING 1
Info: MIN ATOMS PER PATCH    40
Info: EMPTY PATCH LOAD       40 ATOMS
Info: INITIAL TEMPERATURE    300
Info: CENTER OF MASS MOVING INITIALLY? NO
Info: DIELECTRIC             1
Info: EXCLUDE                SCALED ONE-FOUR
Info: 1-4 ELECTROSTATICS SCALED BY 0.833333
Info: MODIFIED 1-4 VDW PARAMETERS WILL BE USED
Info: DCD FILENAME           mobley_337666_equil.dcd
Info: DCD FREQUENCY          100000
Info: DCD FIRST STEP         100000
Info: DCD FILE WILL CONTAIN UNIT CELL DATA
Info: XST FILENAME           mobley_337666_equil.xst
Info: XST FREQUENCY          100000
Info: NO VELOCITY DCD OUTPUT
Info: NO FORCE DCD OUTPUT
Info: OUTPUT FILENAME        mobley_337666_equil
Info: BINARY OUTPUT FILES WILL BE USED
Info: RESTART FILENAME       mobley_337666_equil.restart
Info: RESTART FREQUENCY      100000
Info: BINARY RESTART FILES WILL BE USED
Info: CUTOFF                 9
Info: PAIRLIST DISTANCE      11
Info: PAIRLIST SHRINK RATE   0.01
Info: PAIRLIST GROW RATE     0.01
Info: PAIRLIST TRIGGER       0.3
Info: PAIRLISTS PER CYCLE    2
Info: PAIRLISTS ENABLED
Info: MARGIN                 8
Info: HYDROGEN GROUP CUTOFF  2.5
Info: PATCH DIMENSION        21.5
Info: ENERGY OUTPUT STEPS    100000
Info: ENERGY EVALUATION STEPS    100000
Info: OUTPUT ENERGY PRECISION 4
Info: CROSSTERM ENERGY INCLUDED IN DIHEDRAL
Info: TIMING OUTPUT STEPS    1000000
Info: PRESSURE OUTPUT STEPS  100000
Info: FIXED ATOMS ACTIVE
Info: LANGEVIN DYNAMICS ACTIVE
Info: LANGEVIN TEMPERATURE   30
Info: LANGEVIN USING BBK INTEGRATOR
Info: LANGEVIN DAMPING COEFFICIENT IS 1 INVERSE PS
Info: LANGEVIN DYNAMICS APPLIED TO HYDROGENS
Info: LANGEVIN PISTON PRESSURE CONTROL ACTIVE
Info:        TARGET PRESSURE IS 1.01325 BAR
Info:     OSCILLATION PERIOD IS 50 FS
Info:             DECAY TIME IS 25 FS
Info:     PISTON TEMPERATURE IS 300 K
Info:       PRESSURE CONTROL IS GROUP-BASED
Info:    INITIAL STRAIN RATE IS 0 0 0
Info:       CELL FLUCTUATION IS ISOTROPIC
Info: PARTICLE MESH EWALD (PME) ACTIVE
Info: PME TOLERANCE               1e-06
Info: PME EWALD COEFFICIENT       0.348832
Info: PME INTERPOLATION ORDER     4
Info: PME GRID DIMENSIONS         40 40 32
Info: PME MAXIMUM GRID SPACING    1
Info: FULL ELECTROSTATIC EVALUATION FREQUENCY      2
Info: USING VERLET I (r-RESPA) MTS SCHEME.
Info: C1 SPLITTING OF LONG RANGE ELECTROSTATICS
Info: PLACING ATOMS IN PATCHES BY HYDROGEN GROUPS
Info: RIGID BONDS TO HYDROGEN : ALL
Info:         ERROR TOLERANCE : 1e-08
Info:          MAX ITERATIONS : 100
Info: RIGID WATER USING SETTLE ALGORITHM
Info: RANDOM NUMBER SEED     1743720103
Info: USE HYDROGEN BONDS?    NO
Info: Using AMBER format force field!
Info: AMBER PARM FILE        mobley_337666.prmtop
Info: COORDINATE PDB         mobley_337666.pdb
Info: Exclusions will be read from PARM file!
Info: SCNB (VDW SCALING)     2
Info: USING ARITHMETIC MEAN TO COMBINE L-J SIGMA PARAMETERS
Info: BINARY COORDINATES     mobley_337666_min.coor
Info: SUMMARY OF PARAMETERS:
Info: 10 BONDS
Info: 14 ANGLES
Info:   14 HARMONIC
Info:   0 COSINE-BASED
Info: 7 DIHEDRAL
Info: 0 IMPROPER
Info: 0 CROSSTERM
Info: 0 VDW
Info: 36 VDW_PAIRS
Info: 0 NBTHOLE_PAIRS
Info: STRUCTURE SUMMARY:
Info: 2943 ATOMS
Info: 2943 BONDS
Info: 18 ANGLES
Info: 33 DIHEDRALS
Info: 0 IMPROPERS
Info: 0 CROSSTERMS
Info: 2982 EXCLUSIONS
Info: 12 FIXED ATOMS
Info: 2934 RIGID BONDS
Info: 3 RIGID BONDS BETWEEN FIXED ATOMS
Info: 5862 DEGREES OF FREEDOM
Info: 986 HYDROGEN GROUPS
Info: 3 ATOMS IN LARGEST HYDROGEN GROUP
Info: 986 MIGRATION GROUPS
Info: 3 ATOMS IN LARGEST MIGRATION GROUP
Info: 9 HYDROGEN GROUPS WITH ALL ATOMS FIXED
Info: TOTAL MASS = 17731.7 amu
Info: TOTAL CHARGE = -0.000200007 e
Info: MASS DENSITY = 0.685277 g/cm^3
Info: ATOM DENSITY = 0.068493 atoms/A^3
Info: ADDED 0 IMPLICIT EXCLUSIONS
Info: NONBONDED TABLE R-SQUARED SPACING: 0.0625
Info: NONBONDED TABLE SIZE: 705 POINTS
Info: REMOVING COM VELOCITY -0.105068 -0.0498293 -0.124137
TCL: Running for 100000 steps
ETITLE: TS BOND ANGLE DIHED IMPRP ELECT VDW BOUNDARY MISC KINETIC TOTAL TEMP POTENTIAL TOTAL3 TEMPAVG PRESSURE GPRESSURE VOLUME PRESSAVG GPRESSAVG
ENERGY: 0 0.0000 0.0000 0.0000 0.0000 -13806.4819 2365.5541 0.0000 0.0000 1777.0677 -9663.8602 305.1044 -11440.9279 -9663.4946 305.1044 278.9717 312.8383 42967.8690 278.9717 312.8383
ENERGY: 100000 0.0000 0.0000 0.0000 0.0000 -14316.1318 2444.5276 0.0000 0.0000 179.4582 -11692.1460 30.8111 -11871.6042 -11691.3613 30.9247 -166.3399 -107.6647 28815.0121 3.9541 3.9134
TCL: Running 100000 steps at 60 kelvin.
TCL: Setting parameter langevinTemp to 60
TCL: Running for 100000 steps
ETITLE: TS BOND ANGLE DIHED IMPRP ELECT VDW BOUNDARY MISC KINETIC TOTAL TEMP POTENTIAL TOTAL3 TEMPAVG PRESSURE GPRESSURE VOLUME PRESSAVG GPRESSAVG
ENERGY: 100000 0.0000 0.0000 0.0000 0.0000 -14316.1318 2444.5276 0.0000 0.0000 179.3743 -11692.2299 30.7967 -11871.6042 -11691.9030 30.7967 -177.0084 -107.4350 28815.0121 -177.0084 -107.4350
ENERGY: 200000 0.0000 0.0000 0.0000 0.0000 -14251.9869 2412.0891 0.0000 0.0000 346.2628 -11493.6349 59.4498 -11839.8977 -11492.0936 60.1821 -41.3163 -34.0299 28417.9543 4.3152 4.3396
TCL: Running 100000 steps at 90 kelvin.
TCL: Setting parameter langevinTemp to 90
TCL: Running for 100000 steps
ETITLE: TS BOND ANGLE DIHED IMPRP ELECT VDW BOUNDARY MISC KINETIC TOTAL TEMP POTENTIAL TOTAL3 TEMPAVG PRESSURE GPRESSURE VOLUME PRESSAVG GPRESSAVG
ENERGY: 200000 0.0000 0.0000 0.0000 0.0000 -14251.9869 2412.0891 0.0000 0.0000 346.0871 -11493.8106 59.4196 -11839.8977 -11493.1722 59.4196 -68.4155 -33.1303 28417.9543 -68.4155 -33.1303
ENERGY: 300000 0.0000 0.0000 0.0000 0.0000 -14009.1595 2233.9026 0.0000 0.0000 536.7276 -11238.5293 92.1507 -11775.2569 -11236.9863 89.8572 -1289.2822 -1220.3896 28420.8283 3.1029 3.0890
TCL: Running 100000 steps at 120 kelvin.
TCL: Setting parameter langevinTemp to 120
TCL: Running for 100000 steps
ETITLE: TS BOND ANGLE DIHED IMPRP ELECT VDW BOUNDARY MISC KINETIC TOTAL TEMP POTENTIAL TOTAL3 TEMPAVG PRESSURE GPRESSURE VOLUME PRESSAVG GPRESSAVG
ENERGY: 300000 0.0000 0.0000 0.0000 0.0000 -14009.1595 2233.9026 0.0000 0.0000 536.4648 -11238.7921 92.1055 -11775.2569 -11237.4874 92.1055 -1272.9025 -1220.4311 28420.8283 -1272.9025 -1220.4311
ENERGY: 400000 0.0000 0.0000 0.0000 0.0000 -13895.4875 2268.5087 0.0000 0.0000 688.7340 -10938.2448 118.2486 -11626.9788 -10936.7368 120.0293 -309.1844 -227.4456 28336.3869 4.3688 4.3897
TCL: Running 100000 steps at 150 kelvin.
TCL: Setting parameter langevinTemp to 150
TCL: Running for 100000 steps
ETITLE: TS BOND ANGLE DIHED IMPRP ELECT VDW BOUNDARY MISC KINETIC TOTAL TEMP POTENTIAL TOTAL3 TEMPAVG PRESSURE GPRESSURE VOLUME PRESSAVG GPRESSAVG
ENERGY: 400000 0.0000 0.0000 0.0000 0.0000 -13895.4875 2268.5087 0.0000 0.0000 688.3873 -10938.5914 118.1891 -11626.9788 -10937.4468 118.1891 -276.3656 -228.3209 28336.3869 -276.3656 -228.3209
ENERGY: 500000 0.0000 0.0000 0.0000 0.0000 -13793.1920 2361.0654 0.0000 0.0000 902.5879 -10529.5386 154.9652 -11432.1265 -10528.0171 150.0865 1402.6499 1390.7788 28182.9747 4.0912 3.9849
TCL: Running 100000 steps at 180 kelvin.
TCL: Setting parameter langevinTemp to 180
TCL: Running for 100000 steps
ETITLE: TS BOND ANGLE DIHED IMPRP ELECT VDW BOUNDARY MISC KINETIC TOTAL TEMP POTENTIAL TOTAL3 TEMPAVG PRESSURE GPRESSURE VOLUME PRESSAVG GPRESSAVG
ENERGY: 500000 0.0000 0.0000 0.0000 0.0000 -13793.1920 2361.0654 0.0000 0.0000 902.1399 -10529.9866 154.8883 -11432.1265 -10528.1627 154.8883 1344.7023 1390.5449 28182.9747 1344.7023 1390.5449
ENERGY: 600000 0.0000 0.0000 0.0000 0.0000 -13227.3630 2088.4516 0.0000 0.0000 1049.6506 -10089.2607 180.2143 -11138.9114 -10086.3226 180.1532 -159.9969 -79.1866 28866.8070 2.6599 2.5908
TCL: Running 100000 steps at 210 kelvin.
TCL: Setting parameter langevinTemp to 210
TCL: Running for 100000 steps
ETITLE: TS BOND ANGLE DIHED IMPRP ELECT VDW BOUNDARY MISC KINETIC TOTAL TEMP POTENTIAL TOTAL3 TEMPAVG PRESSURE GPRESSURE VOLUME PRESSAVG GPRESSAVG
ENERGY: 600000 0.0000 0.0000 0.0000 0.0000 -13227.3630 2088.4516 0.0000 0.0000 1049.1280 -10089.7833 180.1246 -11138.9114 -10087.9053 180.1246 -161.4582 -79.5063 28866.8070 -161.4582 -79.5063
ENERGY: 700000 0.0000 0.0000 0.0000 0.0000 -12679.6330 1986.4968 0.0000 0.0000 1178.4353 -9514.7009 202.3254 -10693.1362 -9512.3928 209.8842 775.1062 820.4369 28588.6579 3.8092 4.0234
TCL: Running 100000 steps at 240 kelvin.
TCL: Setting parameter langevinTemp to 240
TCL: Running for 100000 steps
ETITLE: TS BOND ANGLE DIHED IMPRP ELECT VDW BOUNDARY MISC KINETIC TOTAL TEMP POTENTIAL TOTAL3 TEMPAVG PRESSURE GPRESSURE VOLUME PRESSAVG GPRESSAVG
ENERGY: 700000 0.0000 0.0000 0.0000 0.0000 -12679.6330 1986.4968 0.0000 0.0000 1177.8081 -9515.3281 202.2177 -10693.1362 -9513.1990 202.2177 753.3926 819.9236 28588.6579 753.3926 819.9236
ENERGY: 800000 0.0000 0.0000 0.0000 0.0000 -11965.3912 1711.5779 0.0000 0.0000 1368.0450 -8885.7683 234.8794 -10253.8134 -8883.1362 239.9920 106.9395 150.7038 28719.5210 3.6572 3.7304
TCL: Running 100000 steps at 270 kelvin.
TCL: Setting parameter langevinTemp to 270
TCL: Running for 100000 steps
ETITLE: TS BOND ANGLE DIHED IMPRP ELECT VDW BOUNDARY MISC KINETIC TOTAL TEMP POTENTIAL TOTAL3 TEMPAVG PRESSURE GPRESSURE VOLUME PRESSAVG GPRESSAVG
ENERGY: 800000 0.0000 0.0000 0.0000 0.0000 -11965.3912 1711.5779 0.0000 0.0000 1367.3229 -8886.4904 234.7554 -10253.8134 -8883.8530 234.7554 67.9229 149.2140 28719.5210 67.9229 149.2140
ENERGY: 900000 0.0000 0.0000 0.0000 0.0000 -11339.7645 1549.1148 0.0000 0.0000 1577.2615 -8213.3882 270.7998 -9790.6497 -8210.3282 270.2372 -59.3660 3.1842 29594.1757 3.9345 3.9001
TCL: Running 1000000 steps at 300 kelvin.
TCL: Setting parameter langevinTemp to 300
TCL: Running for 1000000 steps
ETITLE: TS BOND ANGLE DIHED IMPRP ELECT VDW BOUNDARY MISC KINETIC TOTAL TEMP POTENTIAL TOTAL3 TEMPAVG PRESSURE GPRESSURE VOLUME PRESSAVG GPRESSAVG
ENERGY: 900000 0.0000 0.0000 0.0000 0.0000 -11339.7645 1549.1148 0.0000 0.0000 1576.4611 -8214.1885 270.6623 -9790.6497 -8212.2251 270.6623 -95.9765 2.1460 29594.1757 -95.9765 2.1460
ENERGY: 1100000 0.0000 0.0000 0.0000 0.0000 -10953.6871 1499.4088 0.0000 0.0000 1790.3943 -7663.8841 307.3925 -9454.2784 -7658.0867 299.8276 230.2438 331.8613 30675.0538 4.2125 4.1848
ENERGY: 1300000 0.0000 0.0000 0.0000 0.0000 -10954.1039 1502.2377 0.0000 0.0000 1786.4663 -7665.3999 306.7181 -9451.8662 -7662.4941 299.8735 739.1440 783.9998 29907.4872 2.9387 2.9687
ENERGY: 1500000 0.0000 0.0000 0.0000 0.0000 -10853.3798 1410.1570 0.0000 0.0000 1760.3660 -7682.8568 302.2369 -9443.2228 -7678.8703 300.2106 -335.8125 -179.1219 30354.2023 3.7312 3.6874
ENERGY: 1700000 0.0000 0.0000 0.0000 0.0000 -10942.2444 1450.8220 0.0000 0.0000 1777.3908 -7714.0316 305.1599 -9491.4224 -7710.8454 300.2693 101.6437 185.9171 29933.8114 4.0642 4.0903
ENERGY: 1900000 0.0000 0.0000 0.0000 0.0000 -10829.1370 1430.7833 0.0000 0.0000 1769.9157 -7628.4380 303.8765 -9398.3537 -7627.5177 300.6114 100.6180 149.9587 30484.7791 2.5573 2.5121
TCL: Exiting due to exit command.
