Info: SIMULATION PARAMETERS:
Info: TIMESTEP               2
Info: NUMBER OF STEPS        0
Info: STEPS PER CYCLE        10
Info: PERIODIC CELL BASIS 1  37.435 0 0
Info: PERIODIC CELL BASIS 2  0 36.032 0
Info: PERIODIC CELL BASIS 3  0 0 31.561
Info: PERIODIC CELL CENTER   0 0 0
Info: WRAPPING WATERS AROUND PERIODIC BOUNDARIES ON OUTPUT.
Info: WRAPPING ALL CLUSTERS AROUND PERIODIC BOUNDARIES ON OUTPUT.
Info: FIRST LDB TIMESTEP     50
Info: LAST LDB TIMESTEP     -1
Info: HOM BACKGROUND SCALING 1
Info: PME BACKGROUND SCALING 1
Info: MIN ATOMS PER PATCH    40
Info: EMPTY PATCH LOAD       40 ATOMS
Info: INITIAL TEMPERATURE    300
Info: CENTER OF MASS MOVING INITIALLY? NO
Info: DIELECTRIC             1
Info: EXCLUDE                SCALED ONE-FOUR
Info: 1-4 ELECTROSTATICS SCALED BY 0.833333
Info: MODIFIED 1-4 VDW PARAMETERS WILL BE USED
Info: DCD FILENAME           mobley_7378987_equil.dcd
Info: DCD FREQUENCY          100000
Info: DCD FIRST STEP         100000
Info: DCD FILE WILL CONTAIN UNIT CELL DATA
Info: XST FILENAME           mobley_7378987_equil.xst
Info: XST FREQUENCY          100000
Info: NO VELOCITY DCD OUTPUT
Info: NO FORCE DCD OUTPUT
Info: OUTPUT FILENAME        mobley_7378987_equil
Info: BINARY OUTPUT FILES WILL BE USED
Info: RESTART FILENAME       mobley_7378987_equil.restart
Info: RESTART FREQUENCY      100000
Info: BINARY RESTART FILES WILL BE USED
Info: CUTOFF                 9
Info: PAIRLIST DISTANCE      11
Info: PAIRLIST SHRINK RATE   0.01
Info: PAIRLIST GROW RATE     0.01
Info: PAIRLIST TRIGGER       0.3
Info: PAIRLISTS PER CYCLE    2
Info: PAIRLISTS ENABLED
Info: MARGIN                 8
Info: HYDROGEN GROUP CUTOFF  2.5
Info: PATCH DIMENSION        21.5
Info: ENERGY OUTPUT STEPS    100000
Info: ENERGY EVALUATION STEPS    100000
Info: OUTPUT ENERGY PRECISION 4
Info: CROSSTERM ENERGY INCLUDED IN DIHEDRAL
Info: TIMING OUTPUT STEPS    1000000
Info: PRESSURE OUTPUT STEPS  100000
Info: FIXED ATOMS ACTIVE
Info: LANGEVIN DYNAMICS ACTIVE
Info: LANGEVIN TEMPERATURE   30
Info: LANGEVIN USING BBK INTEGRATOR
Info: LANGEVIN DAMPING COEFFICIENT IS 1 INVERSE PS
Info: LANGEVIN DYNAMICS APPLIED TO HYDROGENS
Info: LANGEVIN PISTON PRESSURE CONTROL ACTIVE
Info:        TARGET PRESSURE IS 1.01325 BAR
Info:     OSCILLATION PERIOD IS 50 FS
Info:             DECAY TIME IS 25 FS
Info:     PISTON TEMPERATURE IS 300 K
Info:       PRESSURE CONTROL IS GROUP-BASED
Info:    INITIAL STRAIN RATE IS 0 0 0
Info:       CELL FLUCTUATION IS ISOTROPIC
Info: PARTICLE MESH EWALD (PME) ACTIVE
Info: PME TOLERANCE               1e-06
Info: PME EWALD COEFFICIENT       0.348832
Info: PME INTERPOLATION ORDER     4
Info: PME GRID DIMENSIONS         40 40 32
Info: PME MAXIMUM GRID SPACING    1
Info: FULL ELECTROSTATIC EVALUATION FREQUENCY      2
Info: USING VERLET I (r-RESPA) MTS SCHEME.
Info: C1 SPLITTING OF LONG RANGE ELECTROSTATICS
Info: PLACING ATOMS IN PATCHES BY HYDROGEN GROUPS
Info: RIGID BONDS TO HYDROGEN : ALL
Info:         ERROR TOLERANCE : 1e-08
Info:          MAX ITERATIONS : 100
Info: RIGID WATER USING SETTLE ALGORITHM
Info: RANDOM NUMBER SEED     1743765082
Info: USE HYDROGEN BONDS?    NO
Info: Using AMBER format force field!
Info: AMBER PARM FILE        mobley_7378987.prmtop
Info: COORDINATE PDB         mobley_7378987.pdb
Info: Exclusions will be read from PARM file!
Info: SCNB (VDW SCALING)     2
Info: USING ARITHMETIC MEAN TO COMBINE L-J SIGMA PARAMETERS
Info: BINARY COORDINATES     mobley_7378987_min.coor
Info: SUMMARY OF PARAMETERS:
Info: 14 BONDS
Info: 23 ANGLES
Info:   23 HARMONIC
Info:   0 COSINE-BASED
Info: 9 DIHEDRAL
Info: 0 IMPROPER
Info: 0 CROSSTERM
Info: 0 VDW
Info: 36 VDW_PAIRS
Info: 0 NBTHOLE_PAIRS
Info: STRUCTURE SUMMARY:
Info: 2922 ATOMS
Info: 2923 BONDS
Info: 43 ANGLES
Info: 62 DIHEDRALS
Info: 0 IMPROPERS
Info: 0 CROSSTERMS
Info: 3012 EXCLUSIONS
Info: 24 FIXED ATOMS
Info: 2908 RIGID BONDS
Info: 10 RIGID BONDS BETWEEN FIXED ATOMS
Info: 5796 DEGREES OF FREEDOM
Info: 980 HYDROGEN GROUPS
Info: 4 ATOMS IN LARGEST HYDROGEN GROUP
Info: 980 MIGRATION GROUPS
Info: 4 ATOMS IN LARGEST MIGRATION GROUP
Info: 14 HYDROGEN GROUPS WITH ALL ATOMS FIXED
Info: TOTAL MASS = 17597.7 amu
Info: TOTAL CHARGE = -0.000199961 e
Info: MASS DENSITY = 0.686431 g/cm^3
Info: ATOM DENSITY = 0.0686378 atoms/A^3
Info: ADDED 0 IMPLICIT EXCLUSIONS
Info: NONBONDED TABLE R-SQUARED SPACING: 0.0625
Info: NONBONDED TABLE SIZE: 705 POINTS
Info: REMOVING COM VELOCITY 0.137616 -0.0496981 0.195185
TCL: Running for 100000 steps
ETITLE: TS BOND ANGLE DIHED IMPRP ELECT VDW BOUNDARY MISC KINETIC TOTAL TEMP POTENTIAL TOTAL3 TEMPAVG PRESSURE GPRESSURE VOLUME PRESSAVG GPRESSAVG
ENERGY: 0 0.0000 0.0000 0.0000 0.0000 -13694.8751 2338.7518 0.0000 0.0000 1742.6291 -9613.4942 302.5986 -11356.1233 -9613.1667 302.5986 170.5113 203.1811 42571.3048 170.5113 203.1811
ENERGY: 100000 0.0000 0.0000 0.0000 0.0000 -14261.4837 2414.8670 0.0000 0.0000 171.3518 -11675.2650 29.7544 -11846.6168 -11674.8889 30.8632 -248.5509 -154.7617 28462.8209 3.5531 3.5748
TCL: Running 100000 steps at 60 kelvin.
TCL: Setting parameter langevinTemp to 60
TCL: Running for 100000 steps
ETITLE: TS BOND ANGLE DIHED IMPRP ELECT VDW BOUNDARY MISC KINETIC TOTAL TEMP POTENTIAL TOTAL3 TEMPAVG PRESSURE GPRESSURE VOLUME PRESSAVG GPRESSAVG
ENERGY: 100000 0.0000 0.0000 0.0000 0.0000 -14261.4837 2414.8670 0.0000 0.0000 171.2648 -11675.3519 29.7393 -11846.6168 -11675.0212 29.7393 -219.3301 -154.7721 28462.8209 -219.3301 -154.7721
ENERGY: 200000 0.0000 0.0000 0.0000 0.0000 -14223.8541 2453.5948 0.0000 0.0000 346.4517 -11423.8076 60.1596 -11770.2593 -11423.2118 60.0688 479.9041 500.9449 28438.1003 3.8454 3.8604
TCL: Running 100000 steps at 90 kelvin.
TCL: Setting parameter langevinTemp to 90
TCL: Running for 100000 steps
ETITLE: TS BOND ANGLE DIHED IMPRP ELECT VDW BOUNDARY MISC KINETIC TOTAL TEMP POTENTIAL TOTAL3 TEMPAVG PRESSURE GPRESSURE VOLUME PRESSAVG GPRESSAVG
ENERGY: 200000 0.0000 0.0000 0.0000 0.0000 -14223.8541 2453.5948 0.0000 0.0000 346.2797 -11423.9796 60.1297 -11770.2593 -11423.3298 60.1297 460.1331 500.8475 28438.1003 460.1331 500.8475
ENERGY: 300000 0.0000 0.0000 0.0000 0.0000 -14017.6451 2317.5574 0.0000 0.0000 521.6511 -11178.4366 90.5821 -11700.0877 -11177.2444 89.9624 -460.0017 -433.7706 28545.8143 3.0984 3.0950
TCL: Running 100000 steps at 120 kelvin.
TCL: Setting parameter langevinTemp to 120
TCL: Running for 100000 steps
ETITLE: TS BOND ANGLE DIHED IMPRP ELECT VDW BOUNDARY MISC KINETIC TOTAL TEMP POTENTIAL TOTAL3 TEMPAVG PRESSURE GPRESSURE VOLUME PRESSAVG GPRESSAVG
ENERGY: 300000 0.0000 0.0000 0.0000 0.0000 -14017.6451 2317.5574 0.0000 0.0000 521.3927 -11178.6950 90.5372 -11700.0877 -11177.4888 90.5372 -476.4595 -433.9317 28545.8143 -476.4595 -433.9317
ENERGY: 400000 0.0000 0.0000 0.0000 0.0000 -14026.7322 2462.3026 0.0000 0.0000 690.0202 -10874.4094 119.8185 -11564.4296 -10872.9699 119.9574 1156.4294 1199.5461 28599.5487 3.3103 3.3024
TCL: Running 100000 steps at 150 kelvin.
TCL: Setting parameter langevinTemp to 150
TCL: Running for 100000 steps
ETITLE: TS BOND ANGLE DIHED IMPRP ELECT VDW BOUNDARY MISC KINETIC TOTAL TEMP POTENTIAL TOTAL3 TEMPAVG PRESSURE GPRESSURE VOLUME PRESSAVG GPRESSAVG
ENERGY: 400000 0.0000 0.0000 0.0000 0.0000 -14026.7322 2462.3026 0.0000 0.0000 689.6828 -10874.7469 119.7599 -11564.4296 -10873.4641 119.7599 1131.7295 1199.8368 28599.5487 1131.7295 1199.8368
ENERGY: 500000 0.0000 0.0000 0.0000 0.0000 -13452.2414 2085.8009 0.0000 0.0000 856.5553 -10509.8852 148.7365 -11366.4405 -10508.4521 149.9219 -1191.1126 -1133.2399 28850.6555 4.6314 4.7261
TCL: Running 100000 steps at 180 kelvin.
TCL: Setting parameter langevinTemp to 180
TCL: Running for 100000 steps
ETITLE: TS BOND ANGLE DIHED IMPRP ELECT VDW BOUNDARY MISC KINETIC TOTAL TEMP POTENTIAL TOTAL3 TEMPAVG PRESSURE GPRESSURE VOLUME PRESSAVG GPRESSAVG
ENERGY: 500000 0.0000 0.0000 0.0000 0.0000 -13452.2414 2085.8009 0.0000 0.0000 856.1280 -10510.3125 148.6623 -11366.4405 -10508.5243 148.6623 -1178.7968 -1133.6276 28850.6555 -1178.7968 -1133.6276
ENERGY: 600000 0.0000 0.0000 0.0000 0.0000 -13287.1651 2169.3715 0.0000 0.0000 1054.5800 -10063.2136 183.1224 -11117.7936 -10060.2064 180.2677 547.9388 617.5344 28634.5139 3.6043 3.5667
TCL: Running 100000 steps at 210 kelvin.
TCL: Setting parameter langevinTemp to 210
TCL: Running for 100000 steps
ETITLE: TS BOND ANGLE DIHED IMPRP ELECT VDW BOUNDARY MISC KINETIC TOTAL TEMP POTENTIAL TOTAL3 TEMPAVG PRESSURE GPRESSURE VOLUME PRESSAVG GPRESSAVG
ENERGY: 600000 0.0000 0.0000 0.0000 0.0000 -13287.1651 2169.3715 0.0000 0.0000 1054.0767 -10063.7169 183.0350 -11117.7936 -10061.6311 183.0350 573.5206 617.7782 28634.5139 573.5206 617.7782
ENERGY: 700000 0.0000 0.0000 0.0000 0.0000 -12632.8120 1968.9660 0.0000 0.0000 1212.0508 -9451.7952 210.4664 -10663.8460 -9449.8073 209.6810 611.6665 671.9574 28686.2365 4.2466 4.0773
TCL: Running 100000 steps at 240 kelvin.
TCL: Setting parameter langevinTemp to 240
TCL: Running for 100000 steps
ETITLE: TS BOND ANGLE DIHED IMPRP ELECT VDW BOUNDARY MISC KINETIC TOTAL TEMP POTENTIAL TOTAL3 TEMPAVG PRESSURE GPRESSURE VOLUME PRESSAVG GPRESSAVG
ENERGY: 700000 0.0000 0.0000 0.0000 0.0000 -12632.8120 1968.9660 0.0000 0.0000 1211.4424 -9452.4036 210.3608 -10663.8460 -9450.7350 210.3608 599.7204 672.1393 28686.2365 599.7204 672.1393
ENERGY: 800000 0.0000 0.0000 0.0000 0.0000 -11812.0293 1656.7156 0.0000 0.0000 1411.1683 -8744.1454 245.0422 -10155.3137 -8741.9237 239.4737 -428.7420 -295.7258 29234.7205 2.0883 2.0500
TCL: Running 100000 steps at 270 kelvin.
TCL: Setting parameter langevinTemp to 270
TCL: Running for 100000 steps
ETITLE: TS BOND ANGLE DIHED IMPRP ELECT VDW BOUNDARY MISC KINETIC TOTAL TEMP POTENTIAL TOTAL3 TEMPAVG PRESSURE GPRESSURE VOLUME PRESSAVG GPRESSAVG
ENERGY: 800000 0.0000 0.0000 0.0000 0.0000 -11812.0293 1656.7156 0.0000 0.0000 1410.4815 -8744.8322 244.9229 -10155.3137 -8742.5412 244.9229 -367.4039 -295.9238 29234.7205 -367.4039 -295.9238
ENERGY: 900000 0.0000 0.0000 0.0000 0.0000 -11358.1831 1566.6914 0.0000 0.0000 1517.9871 -8273.5046 263.5907 -9791.4917 -8270.5162 270.2543 198.2047 263.7896 29332.0965 3.3470 3.4012
TCL: Running 1000000 steps at 300 kelvin.
TCL: Setting parameter langevinTemp to 300
TCL: Running for 1000000 steps
ETITLE: TS BOND ANGLE DIHED IMPRP ELECT VDW BOUNDARY MISC KINETIC TOTAL TEMP POTENTIAL TOTAL3 TEMPAVG PRESSURE GPRESSURE VOLUME PRESSAVG GPRESSAVG
ENERGY: 900000 0.0000 0.0000 0.0000 0.0000 -11358.1831 1566.6914 0.0000 0.0000 1517.2542 -8274.2375 263.4634 -9791.4917 -8271.9032 263.4634 184.9191 262.3440 29332.0965 184.9191 262.3440
ENERGY: 1100000 0.0000 0.0000 0.0000 0.0000 -10863.7894 1457.3203 0.0000 0.0000 1717.6393 -7688.8298 298.2593 -9406.4691 -7684.5688 300.3633 309.9180 315.8347 30153.2459 2.7754 3.0119
ENERGY: 1300000 0.0000 0.0000 0.0000 0.0000 -10842.4385 1423.6426 0.0000 0.0000 1724.7656 -7694.0302 299.4967 -9418.7959 -7691.1671 299.8841 181.0315 277.8430 29569.9374 3.2967 3.2866
ENERGY: 1500000 0.0000 0.0000 0.0000 0.0000 -10708.9423 1380.2702 0.0000 0.0000 1700.3481 -7628.3239 295.2568 -9328.6720 -7625.5364 300.2590 -403.9106 -312.4411 30658.1329 3.2852 3.0088
ENERGY: 1700000 0.0000 0.0000 0.0000 0.0000 -10662.8932 1374.8845 0.0000 0.0000 1728.6865 -7559.3223 300.1776 -9288.0087 -7556.9686 300.9734 142.4430 222.8881 30037.4993 3.1332 3.1869
ENERGY: 1900000 0.0000 0.0000 0.0000 0.0000 -10978.7015 1477.5199 0.0000 0.0000 1660.2819 -7840.8997 288.2995 -9501.1816 -7839.3155 300.9397 -70.0335 41.1769 30412.0857 3.9531 3.9445
TCL: Exiting due to exit command.
