Info: SIMULATION PARAMETERS:
Info: TIMESTEP               2
Info: NUMBER OF STEPS        0
Info: STEPS PER CYCLE        10
Info: PERIODIC CELL BASIS 1  36.592 0 0
Info: PERIODIC CELL BASIS 2  0 34.26 0
Info: PERIODIC CELL BASIS 3  0 0 34.954
Info: PERIODIC CELL CENTER   0 0 0
Info: WRAPPING WATERS AROUND PERIODIC BOUNDARIES ON OUTPUT.
Info: WRAPPING ALL CLUSTERS AROUND PERIODIC BOUNDARIES ON OUTPUT.
Info: FIRST LDB TIMESTEP     50
Info: LAST LDB TIMESTEP     -1
Info: HOM BACKGROUND SCALING 1
Info: PME BACKGROUND SCALING 1
Info: MIN ATOMS PER PATCH    40
Info: EMPTY PATCH LOAD       40 ATOMS
Info: INITIAL TEMPERATURE    300
Info: CENTER OF MASS MOVING INITIALLY? NO
Info: DIELECTRIC             1
Info: EXCLUDE                SCALED ONE-FOUR
Info: 1-4 ELECTROSTATICS SCALED BY 0.833333
Info: MODIFIED 1-4 VDW PARAMETERS WILL BE USED
Info: DCD FILENAME           mobley_9028462_equil.dcd
Info: DCD FREQUENCY          100000
Info: DCD FIRST STEP         100000
Info: DCD FILE WILL CONTAIN UNIT CELL DATA
Info: XST FILENAME           mobley_9028462_equil.xst
Info: XST FREQUENCY          100000
Info: NO VELOCITY DCD OUTPUT
Info: NO FORCE DCD OUTPUT
Info: OUTPUT FILENAME        mobley_9028462_equil
Info: BINARY OUTPUT FILES WILL BE USED
Info: RESTART FILENAME       mobley_9028462_equil.restart
Info: RESTART FREQUENCY      100000
Info: BINARY RESTART FILES WILL BE USED
Info: CUTOFF                 9
Info: PAIRLIST DISTANCE      11
Info: PAIRLIST SHRINK RATE   0.01
Info: PAIRLIST GROW RATE     0.01
Info: PAIRLIST TRIGGER       0.3
Info: PAIRLISTS PER CYCLE    2
Info: PAIRLISTS ENABLED
Info: MARGIN                 8
Info: HYDROGEN GROUP CUTOFF  2.5
Info: PATCH DIMENSION        21.5
Info: ENERGY OUTPUT STEPS    100000
Info: ENERGY EVALUATION STEPS    100000
Info: OUTPUT ENERGY PRECISION 4
Info: CROSSTERM ENERGY INCLUDED IN DIHEDRAL
Info: TIMING OUTPUT STEPS    1000000
Info: PRESSURE OUTPUT STEPS  100000
Info: FIXED ATOMS ACTIVE
Info: LANGEVIN DYNAMICS ACTIVE
Info: LANGEVIN TEMPERATURE   30
Info: LANGEVIN USING BBK INTEGRATOR
Info: LANGEVIN DAMPING COEFFICIENT IS 1 INVERSE PS
Info: LANGEVIN DYNAMICS APPLIED TO HYDROGENS
Info: LANGEVIN PISTON PRESSURE CONTROL ACTIVE
Info:        TARGET PRESSURE IS 1.01325 BAR
Info:     OSCILLATION PERIOD IS 50 FS
Info:             DECAY TIME IS 25 FS
Info:     PISTON TEMPERATURE IS 300 K
Info:       PRESSURE CONTROL IS GROUP-BASED
Info:    INITIAL STRAIN RATE IS 0 0 0
Info:       CELL FLUCTUATION IS ISOTROPIC
Info: PARTICLE MESH EWALD (PME) ACTIVE
Info: PME TOLERANCE               1e-06
Info: PME EWALD COEFFICIENT       0.348832
Info: PME INTERPOLATION ORDER     4
Info: PME GRID DIMENSIONS         40 36 36
Info: PME MAXIMUM GRID SPACING    1
Info: FULL ELECTROSTATIC EVALUATION FREQUENCY      2
Info: USING VERLET I (r-RESPA) MTS SCHEME.
Info: C1 SPLITTING OF LONG RANGE ELECTROSTATICS
Info: PLACING ATOMS IN PATCHES BY HYDROGEN GROUPS
Info: RIGID BONDS TO HYDROGEN : ALL
Info:         ERROR TOLERANCE : 1e-08
Info:          MAX ITERATIONS : 100
Info: RIGID WATER USING SETTLE ALGORITHM
Info: RANDOM NUMBER SEED     1743684291
Info: USE HYDROGEN BONDS?    NO
Info: Using AMBER format force field!
Info: AMBER PARM FILE        mobley_9028462.prmtop
Info: COORDINATE PDB         mobley_9028462.pdb
Info: Exclusions will be read from PARM file!
Info: SCNB (VDW SCALING)     2
Info: USING ARITHMETIC MEAN TO COMBINE L-J SIGMA PARAMETERS
Info: BINARY COORDINATES     mobley_9028462_min.coor
Info: SUMMARY OF PARAMETERS:
Info: 8 BONDS
Info: 8 ANGLES
Info: 7 DIHEDRAL
Info: 0 IMPROPER
Info: 0 CROSSTERM
Info: 0 VDW
Info: 36 VDW_PAIRS
Info: 0 NBTHOLE_PAIRS
Info: STRUCTURE SUMMARY:
Info: 2969 ATOMS
Info: 2968 BONDS
Info: 16 ANGLES
Info: 15 DIHEDRALS
Info: 0 IMPROPERS
Info: 0 CROSSTERMS
Info: 2995 EXCLUSIONS
Info: 11 FIXED ATOMS
Info: 2961 RIGID BONDS
Info: 3 RIGID BONDS BETWEEN FIXED ATOMS
Info: 5916 DEGREES OF FREEDOM
Info: 994 HYDROGEN GROUPS
Info: 4 ATOMS IN LARGEST HYDROGEN GROUP
Info: 994 MIGRATION GROUPS
Info: 4 ATOMS IN LARGEST MIGRATION GROUP
Info: 8 HYDROGEN GROUPS WITH ALL ATOMS FIXED
Info: TOTAL MASS = 17891.8 amu
Info: TOTAL CHARGE = -8.9407e-08 e
Info: MASS DENSITY = 0.678022 g/cm^3
Info: ATOM DENSITY = 0.0677548 atoms/A^3
Info: ADDED 0 IMPLICIT EXCLUSIONS
Info: NONBONDED TABLE R-SQUARED SPACING: 0.0625
Info: NONBONDED TABLE SIZE: 705 POINTS
Info: REMOVING COM VELOCITY -0.0766584 -0.0553588 0.00679403
TCL: Running for 100000 steps
ETITLE: TS BOND ANGLE DIHED IMPRP ELECT VDW BOUNDARY MISC KINETIC TOTAL TEMP POTENTIAL TOTAL3 TEMPAVG PRESSURE GPRESSURE VOLUME PRESSAVG GPRESSAVG
ENERGY: 0 0.0000 0.0000 0.0000 0.0000 -13753.2923 2345.7406 0.0000 0.0000 1735.4961 -9672.0556 295.2473 -11407.5517 -9671.7443 295.2473 9.7853 42.3251 43819.7997 9.7853 42.3251
ENERGY: 100000 0.0000 0.0000 0.0000 0.0000 -14417.8206 2522.4970 0.0000 0.0000 174.5957 -11720.7279 29.7027 -11895.3236 -11720.3119 30.9215 289.0370 329.5856 29134.9810 3.2711 3.2537
TCL: Running 100000 steps at 60 kelvin.
TCL: Setting parameter langevinTemp to 60
TCL: Running for 100000 steps
ETITLE: TS BOND ANGLE DIHED IMPRP ELECT VDW BOUNDARY MISC KINETIC TOTAL TEMP POTENTIAL TOTAL3 TEMPAVG PRESSURE GPRESSURE VOLUME PRESSAVG GPRESSAVG
ENERGY: 100000 0.0000 0.0000 0.0000 0.0000 -14417.8206 2522.4970 0.0000 0.0000 174.5073 -11720.8164 29.6876 -11895.3236 -11720.4507 29.6876 275.8090 329.6937 29134.9810 275.8090 329.6937
ENERGY: 200000 0.0000 0.0000 0.0000 0.0000 -14373.3202 2519.6539 0.0000 0.0000 360.8020 -11492.8643 61.3806 -11853.6663 -11492.0357 59.9989 488.2831 536.5154 28923.9312 6.0132 6.0439
TCL: Running 100000 steps at 90 kelvin.
TCL: Setting parameter langevinTemp to 90
TCL: Running for 100000 steps
ETITLE: TS BOND ANGLE DIHED IMPRP ELECT VDW BOUNDARY MISC KINETIC TOTAL TEMP POTENTIAL TOTAL3 TEMPAVG PRESSURE GPRESSURE VOLUME PRESSAVG GPRESSAVG
ENERGY: 200000 0.0000 0.0000 0.0000 0.0000 -14373.3202 2519.6539 0.0000 0.0000 360.6244 -11493.0419 61.3504 -11853.6663 -11492.2266 61.3504 494.6594 536.2860 28923.9312 494.6594 536.2860
ENERGY: 300000 0.0000 0.0000 0.0000 0.0000 -14065.2839 2335.7284 0.0000 0.0000 521.4025 -11208.1529 88.7024 -11729.5554 -11206.7328 89.8658 -575.2239 -546.2387 29135.2104 4.8428 4.8612
TCL: Running 100000 steps at 120 kelvin.
TCL: Setting parameter langevinTemp to 120
TCL: Running for 100000 steps
ETITLE: TS BOND ANGLE DIHED IMPRP ELECT VDW BOUNDARY MISC KINETIC TOTAL TEMP POTENTIAL TOTAL3 TEMPAVG PRESSURE GPRESSURE VOLUME PRESSAVG GPRESSAVG
ENERGY: 300000 0.0000 0.0000 0.0000 0.0000 -14065.2839 2335.7284 0.0000 0.0000 521.1396 -11208.4158 88.6577 -11729.5554 -11207.3358 88.6577 -598.5595 -546.0639 29135.2104 -598.5595 -546.0639
ENERGY: 400000 0.0000 0.0000 0.0000 0.0000 -14104.9148 2457.9732 0.0000 0.0000 698.0542 -10948.8874 118.7549 -11646.9416 -10947.8574 120.1031 733.3679 800.1774 28970.7798 3.3090 3.4695
TCL: Running 100000 steps at 150 kelvin.
TCL: Setting parameter langevinTemp to 150
TCL: Running for 100000 steps
ETITLE: TS BOND ANGLE DIHED IMPRP ELECT VDW BOUNDARY MISC KINETIC TOTAL TEMP POTENTIAL TOTAL3 TEMPAVG PRESSURE GPRESSURE VOLUME PRESSAVG GPRESSAVG
ENERGY: 400000 0.0000 0.0000 0.0000 0.0000 -14104.9148 2457.9732 0.0000 0.0000 697.6989 -10949.2427 118.6944 -11646.9416 -10947.9209 118.6944 744.6014 798.4740 28970.7798 744.6014 798.4740
ENERGY: 500000 0.0000 0.0000 0.0000 0.0000 -13749.3394 2314.0224 0.0000 0.0000 892.6185 -10542.6985 151.8547 -11435.3171 -10540.4315 150.0601 208.4108 284.2344 29369.5282 2.6348 2.7003
TCL: Running 100000 steps at 180 kelvin.
TCL: Setting parameter langevinTemp to 180
TCL: Running for 100000 steps
ETITLE: TS BOND ANGLE DIHED IMPRP ELECT VDW BOUNDARY MISC KINETIC TOTAL TEMP POTENTIAL TOTAL3 TEMPAVG PRESSURE GPRESSURE VOLUME PRESSAVG GPRESSAVG
ENERGY: 500000 0.0000 0.0000 0.0000 0.0000 -13749.3394 2314.0224 0.0000 0.0000 892.1928 -10543.1243 151.7822 -11435.3171 -10541.6797 151.7822 232.5312 284.4292 29369.5282 232.5312 284.4292
ENERGY: 600000 0.0000 0.0000 0.0000 0.0000 -13314.3787 2180.2508 0.0000 0.0000 1061.8908 -10072.2371 180.6517 -11134.1279 -10069.5272 180.1187 496.0250 518.3346 29079.3261 3.8046 3.9564
TCL: Running 100000 steps at 210 kelvin.
TCL: Setting parameter langevinTemp to 210
TCL: Running for 100000 steps
ETITLE: TS BOND ANGLE DIHED IMPRP ELECT VDW BOUNDARY MISC KINETIC TOTAL TEMP POTENTIAL TOTAL3 TEMPAVG PRESSURE GPRESSURE VOLUME PRESSAVG GPRESSAVG
ENERGY: 600000 0.0000 0.0000 0.0000 0.0000 -13314.3787 2180.2508 0.0000 0.0000 1061.3669 -10072.7610 180.5626 -11134.1279 -10071.1134 180.5626 456.7145 518.7885 29079.3261 456.7145 518.7885
ENERGY: 700000 0.0000 0.0000 0.0000 0.0000 -12497.4221 1851.4052 0.0000 0.0000 1252.3079 -9393.7090 213.0460 -10646.0169 -9390.3344 209.1520 -365.1303 -322.5917 29106.4531 4.3373 4.4073
TCL: Running 100000 steps at 240 kelvin.
TCL: Setting parameter langevinTemp to 240
TCL: Running for 100000 steps
ETITLE: TS BOND ANGLE DIHED IMPRP ELECT VDW BOUNDARY MISC KINETIC TOTAL TEMP POTENTIAL TOTAL3 TEMPAVG PRESSURE GPRESSURE VOLUME PRESSAVG GPRESSAVG
ENERGY: 700000 0.0000 0.0000 0.0000 0.0000 -12497.4221 1851.4052 0.0000 0.0000 1251.6706 -9394.3464 212.9376 -10646.0169 -9392.2453 212.9376 -397.8534 -321.2549 29106.4531 -397.8534 -321.2549
ENERGY: 800000 0.0000 0.0000 0.0000 0.0000 -11791.3138 1614.9786 0.0000 0.0000 1501.2654 -8675.0698 255.3993 -10176.3351 -8673.7872 240.0913 -1010.8769 -834.1855 29756.3689 4.1151 4.2939
TCL: Running 100000 steps at 270 kelvin.
TCL: Setting parameter langevinTemp to 270
TCL: Running for 100000 steps
ETITLE: TS BOND ANGLE DIHED IMPRP ELECT VDW BOUNDARY MISC KINETIC TOTAL TEMP POTENTIAL TOTAL3 TEMPAVG PRESSURE GPRESSURE VOLUME PRESSAVG GPRESSAVG
ENERGY: 800000 0.0000 0.0000 0.0000 0.0000 -11791.3138 1614.9786 0.0000 0.0000 1500.5877 -8675.7475 255.2840 -10176.3351 -8673.3631 255.2840 -913.7308 -836.0142 29756.3689 -913.7308 -836.0142
ENERGY: 900000 0.0000 0.0000 0.0000 0.0000 -11196.7138 1455.0248 0.0000 0.0000 1601.4653 -8140.2236 272.4456 -9741.6890 -8136.7943 269.8386 -538.3182 -396.6252 29228.4183 1.3605 1.2719
TCL: Running 1000000 steps at 300 kelvin.
TCL: Setting parameter langevinTemp to 300
TCL: Running for 1000000 steps
ETITLE: TS BOND ANGLE DIHED IMPRP ELECT VDW BOUNDARY MISC KINETIC TOTAL TEMP POTENTIAL TOTAL3 TEMPAVG PRESSURE GPRESSURE VOLUME PRESSAVG GPRESSAVG
ENERGY: 900000 0.0000 0.0000 0.0000 0.0000 -11196.7138 1455.0248 0.0000 0.0000 1600.6987 -8140.9903 272.3152 -9741.6890 -8138.9368 272.3152 -488.6239 -396.3119 29228.4183 -488.6239 -396.3119
ENERGY: 1100000 0.0000 0.0000 0.0000 0.0000 -10867.7174 1443.9830 0.0000 0.0000 1731.5341 -7692.2003 294.5732 -9423.7344 -7689.0103 299.5033 -21.4477 33.3892 30671.1918 2.4456 2.4491
ENERGY: 1300000 0.0000 0.0000 0.0000 0.0000 -10938.3387 1462.0552 0.0000 0.0000 1727.0517 -7749.2318 293.8107 -9476.2835 -7743.7514 299.9032 -97.3816 4.5871 30741.0857 2.4808 2.2405
ENERGY: 1500000 0.0000 0.0000 0.0000 0.0000 -10914.7709 1477.4465 0.0000 0.0000 1719.2008 -7718.1236 292.4750 -9437.3244 -7713.3345 299.5059 386.3829 418.2405 30194.7143 2.7106 2.7522
ENERGY: 1700000 0.0000 0.0000 0.0000 0.0000 -10935.9538 1474.7185 0.0000 0.0000 1737.2805 -7723.9547 295.5508 -9461.2352 -7721.3406 300.0705 12.2601 115.1341 30627.7443 3.0365 2.9905
ENERGY: 1900000 0.0000 0.0000 0.0000 0.0000 -10847.0795 1409.4046 0.0000 0.0000 1724.2050 -7713.4699 293.3264 -9437.6749 -7710.7245 300.0727 -535.6001 -449.3153 30746.6307 3.2706 3.2407
TCL: Exiting due to exit command.
