Info: SIMULATION PARAMETERS:
Info: TIMESTEP               2
Info: NUMBER OF STEPS        0
Info: STEPS PER CYCLE        10
Info: PERIODIC CELL BASIS 1  38.861 0 0
Info: PERIODIC CELL BASIS 2  0 35.411 0
Info: PERIODIC CELL BASIS 3  0 0 31.855
Info: PERIODIC CELL CENTER   0 0 0
Info: WRAPPING WATERS AROUND PERIODIC BOUNDARIES ON OUTPUT.
Info: WRAPPING ALL CLUSTERS AROUND PERIODIC BOUNDARIES ON OUTPUT.
Info: FIRST LDB TIMESTEP     50
Info: LAST LDB TIMESTEP     -1
Info: HOM BACKGROUND SCALING 1
Info: PME BACKGROUND SCALING 1
Info: MIN ATOMS PER PATCH    40
Info: EMPTY PATCH LOAD       40 ATOMS
Info: INITIAL TEMPERATURE    300
Info: CENTER OF MASS MOVING INITIALLY? NO
Info: DIELECTRIC             1
Info: EXCLUDE                SCALED ONE-FOUR
Info: 1-4 ELECTROSTATICS SCALED BY 0.833333
Info: MODIFIED 1-4 VDW PARAMETERS WILL BE USED
Info: DCD FILENAME           mobley_4218209_equil.dcd
Info: DCD FREQUENCY          100000
Info: DCD FIRST STEP         100000
Info: DCD FILE WILL CONTAIN UNIT CELL DATA
Info: XST FILENAME           mobley_4218209_equil.xst
Info: XST FREQUENCY          100000
Info: NO VELOCITY DCD OUTPUT
Info: NO FORCE DCD OUTPUT
Info: OUTPUT FILENAME        mobley_4218209_equil
Info: BINARY OUTPUT FILES WILL BE USED
Info: RESTART FILENAME       mobley_4218209_equil.restart
Info: RESTART FREQUENCY      100000
Info: BINARY RESTART FILES WILL BE USED
Info: CUTOFF                 9
Info: PAIRLIST DISTANCE      11
Info: PAIRLIST SHRINK RATE   0.01
Info: PAIRLIST GROW RATE     0.01
Info: PAIRLIST TRIGGER       0.3
Info: PAIRLISTS PER CYCLE    2
Info: PAIRLISTS ENABLED
Info: MARGIN                 8
Info: HYDROGEN GROUP CUTOFF  2.5
Info: PATCH DIMENSION        21.5
Info: ENERGY OUTPUT STEPS    100000
Info: ENERGY EVALUATION STEPS    100000
Info: OUTPUT ENERGY PRECISION 4
Info: CROSSTERM ENERGY INCLUDED IN DIHEDRAL
Info: TIMING OUTPUT STEPS    1000000
Info: PRESSURE OUTPUT STEPS  100000
Info: FIXED ATOMS ACTIVE
Info: LANGEVIN DYNAMICS ACTIVE
Info: LANGEVIN TEMPERATURE   30
Info: LANGEVIN USING BBK INTEGRATOR
Info: LANGEVIN DAMPING COEFFICIENT IS 1 INVERSE PS
Info: LANGEVIN DYNAMICS APPLIED TO HYDROGENS
Info: LANGEVIN PISTON PRESSURE CONTROL ACTIVE
Info:        TARGET PRESSURE IS 1.01325 BAR
Info:     OSCILLATION PERIOD IS 50 FS
Info:             DECAY TIME IS 25 FS
Info:     PISTON TEMPERATURE IS 300 K
Info:       PRESSURE CONTROL IS GROUP-BASED
Info:    INITIAL STRAIN RATE IS 0 0 0
Info:       CELL FLUCTUATION IS ISOTROPIC
Info: PARTICLE MESH EWALD (PME) ACTIVE
Info: PME TOLERANCE               1e-06
Info: PME EWALD COEFFICIENT       0.348832
Info: PME INTERPOLATION ORDER     4
Info: PME GRID DIMENSIONS         40 36 32
Info: PME MAXIMUM GRID SPACING    1
Info: FULL ELECTROSTATIC EVALUATION FREQUENCY      2
Info: USING VERLET I (r-RESPA) MTS SCHEME.
Info: C1 SPLITTING OF LONG RANGE ELECTROSTATICS
Info: PLACING ATOMS IN PATCHES BY HYDROGEN GROUPS
Info: RIGID BONDS TO HYDROGEN : ALL
Info:         ERROR TOLERANCE : 1e-08
Info:          MAX ITERATIONS : 100
Info: RIGID WATER USING SETTLE ALGORITHM
Info: RANDOM NUMBER SEED     1744092650
Info: USE HYDROGEN BONDS?    NO
Info: Using AMBER format force field!
Info: AMBER PARM FILE        mobley_4218209.prmtop
Info: COORDINATE PDB         mobley_4218209.pdb
Info: Exclusions will be read from PARM file!
Info: SCNB (VDW SCALING)     2
Info: USING ARITHMETIC MEAN TO COMBINE L-J SIGMA PARAMETERS
Info: BINARY COORDINATES     mobley_4218209_min.coor
Info: SUMMARY OF PARAMETERS:
Info: 9 BONDS
Info: 9 ANGLES
Info:   9 HARMONIC
Info:   0 COSINE-BASED
Info: 5 DIHEDRAL
Info: 0 IMPROPER
Info: 0 CROSSTERM
Info: 0 VDW
Info: 45 VDW_PAIRS
Info: 0 NBTHOLE_PAIRS
Info: STRUCTURE SUMMARY:
Info: 2997 ATOMS
Info: 2997 BONDS
Info: 28 ANGLES
Info: 40 DIHEDRALS
Info: 0 IMPROPERS
Info: 0 CROSSTERMS
Info: 3055 EXCLUSIONS
Info: 18 FIXED ATOMS
Info: 2988 RIGID BONDS
Info: 9 RIGID BONDS BETWEEN FIXED ATOMS
Info: 5958 DEGREES OF FREEDOM
Info: 1002 HYDROGEN GROUPS
Info: 4 ATOMS IN LARGEST HYDROGEN GROUP
Info: 1002 MIGRATION GROUPS
Info: 4 ATOMS IN LARGEST MIGRATION GROUP
Info: 9 HYDROGEN GROUPS WITH ALL ATOMS FIXED
Info: TOTAL MASS = 18013 amu
Info: TOTAL CHARGE = 9.99868e-05 e
Info: MASS DENSITY = 0.682365 g/cm^3
Info: ATOM DENSITY = 0.0683686 atoms/A^3
Info: ADDED 0 IMPLICIT EXCLUSIONS
Info: NONBONDED TABLE R-SQUARED SPACING: 0.0625
Info: NONBONDED TABLE SIZE: 705 POINTS
Info: REMOVING COM VELOCITY 0.0754264 -0.191282 0.0497376
TCL: Running for 100000 steps
ETITLE: TS BOND ANGLE DIHED IMPRP ELECT VDW BOUNDARY MISC KINETIC TOTAL TEMP POTENTIAL TOTAL3 TEMPAVG PRESSURE GPRESSURE VOLUME PRESSAVG GPRESSAVG
ENERGY: 0 0.0000 0.0000 0.0000 0.0000 -13997.1421 2422.4259 0.0000 0.0000 1784.5012 -9790.2151 301.4441 -11574.7162 -9789.9048 301.4441 278.5486 316.6447 43835.8844 278.5486 316.6447
ENERGY: 100000 0.0000 0.0000 0.0000 0.0000 -14516.2006 2586.7632 0.0000 0.0000 176.7782 -11752.6592 29.8620 -11929.4373 -11752.2230 30.8728 500.3445 572.8515 30336.4371 4.3093 4.3190
TCL: Running 100000 steps at 60 kelvin.
TCL: Setting parameter langevinTemp to 60
TCL: Running for 100000 steps
ETITLE: TS BOND ANGLE DIHED IMPRP ELECT VDW BOUNDARY MISC KINETIC TOTAL TEMP POTENTIAL TOTAL3 TEMPAVG PRESSURE GPRESSURE VOLUME PRESSAVG GPRESSAVG
ENERGY: 100000 0.0000 0.0000 0.0000 0.0000 -14516.2006 2586.7632 0.0000 0.0000 176.6904 -11752.7470 29.8471 -11929.4373 -11752.3038 29.8471 508.7077 572.8883 30336.4371 508.7077 572.8883
ENERGY: 200000 0.0000 0.0000 0.0000 0.0000 -14354.4407 2449.0229 0.0000 0.0000 352.1548 -11553.2630 59.4872 -11905.4178 -11552.6325 59.9800 -198.3843 -155.4111 29743.9563 4.5279 4.6109
TCL: Running 100000 steps at 90 kelvin.
TCL: Setting parameter langevinTemp to 90
TCL: Running for 100000 steps
ETITLE: TS BOND ANGLE DIHED IMPRP ELECT VDW BOUNDARY MISC KINETIC TOTAL TEMP POTENTIAL TOTAL3 TEMPAVG PRESSURE GPRESSURE VOLUME PRESSAVG GPRESSAVG
ENERGY: 200000 0.0000 0.0000 0.0000 0.0000 -14354.4407 2449.0229 0.0000 0.0000 351.9770 -11553.4408 59.4572 -11905.4178 -11552.6766 59.4572 -209.4826 -155.1631 29743.9563 -209.4826 -155.1631
ENERGY: 300000 0.0000 0.0000 0.0000 0.0000 -14074.5871 2277.0103 0.0000 0.0000 535.2472 -11262.3296 90.4158 -11797.5768 -11260.2748 89.9046 -1068.9944 -1021.1004 29890.4125 3.7028 3.6485
TCL: Running 100000 steps at 120 kelvin.
TCL: Setting parameter langevinTemp to 120
TCL: Running for 100000 steps
ETITLE: TS BOND ANGLE DIHED IMPRP ELECT VDW BOUNDARY MISC KINETIC TOTAL TEMP POTENTIAL TOTAL3 TEMPAVG PRESSURE GPRESSURE VOLUME PRESSAVG GPRESSAVG
ENERGY: 300000 0.0000 0.0000 0.0000 0.0000 -14074.5871 2277.0103 0.0000 0.0000 534.9699 -11262.6069 90.3689 -11797.5768 -11261.5432 90.3689 -1079.3819 -1020.9751 29890.4125 -1079.3819 -1020.9751
ENERGY: 400000 0.0000 0.0000 0.0000 0.0000 -13887.0298 2229.5347 0.0000 0.0000 719.6232 -10937.8719 121.5612 -11657.4951 -10935.4243 119.7572 -836.1666 -813.7432 29815.9675 3.0282 3.0927
TCL: Running 100000 steps at 150 kelvin.
TCL: Setting parameter langevinTemp to 150
TCL: Running for 100000 steps
ETITLE: TS BOND ANGLE DIHED IMPRP ELECT VDW BOUNDARY MISC KINETIC TOTAL TEMP POTENTIAL TOTAL3 TEMPAVG PRESSURE GPRESSURE VOLUME PRESSAVG GPRESSAVG
ENERGY: 400000 0.0000 0.0000 0.0000 0.0000 -13887.0298 2229.5347 0.0000 0.0000 719.2635 -10938.2317 121.5004 -11657.4951 -10936.7112 121.5004 -854.6063 -812.3652 29815.9675 -854.6063 -812.3652
ENERGY: 500000 0.0000 0.0000 0.0000 0.0000 -13827.6426 2370.8555 0.0000 0.0000 878.5888 -10578.1983 148.4142 -11456.7871 -10576.5687 149.6407 821.9365 861.0582 29587.5568 3.6411 3.6849
TCL: Running 100000 steps at 180 kelvin.
TCL: Setting parameter langevinTemp to 180
TCL: Running for 100000 steps
ETITLE: TS BOND ANGLE DIHED IMPRP ELECT VDW BOUNDARY MISC KINETIC TOTAL TEMP POTENTIAL TOTAL3 TEMPAVG PRESSURE GPRESSURE VOLUME PRESSAVG GPRESSAVG
ENERGY: 500000 0.0000 0.0000 0.0000 0.0000 -13827.6426 2370.8555 0.0000 0.0000 878.1271 -10578.6600 148.3362 -11456.7871 -10577.4251 148.3362 802.8969 860.1077 29587.5568 802.8969 860.1077
ENERGY: 600000 0.0000 0.0000 0.0000 0.0000 -13466.8354 2203.1824 0.0000 0.0000 1068.3065 -10195.3465 180.4620 -11263.6530 -10194.7488 180.6381 282.6872 308.9564 29450.0453 3.1693 3.1394
TCL: Running 100000 steps at 210 kelvin.
TCL: Setting parameter langevinTemp to 210
TCL: Running for 100000 steps
ETITLE: TS BOND ANGLE DIHED IMPRP ELECT VDW BOUNDARY MISC KINETIC TOTAL TEMP POTENTIAL TOTAL3 TEMPAVG PRESSURE GPRESSURE VOLUME PRESSAVG GPRESSAVG
ENERGY: 600000 0.0000 0.0000 0.0000 0.0000 -13466.8354 2203.1824 0.0000 0.0000 1067.7717 -10195.8813 180.3717 -11263.6530 -10193.5316 180.3717 240.0367 306.6371 29450.0453 240.0367 306.6371
ENERGY: 700000 0.0000 0.0000 0.0000 0.0000 -12576.9588 1807.6621 0.0000 0.0000 1239.5951 -9529.7015 209.3967 -10769.2967 -9527.3632 209.7804 -1035.7498 -908.3148 29315.0455 3.8755 3.6719
TCL: Running 100000 steps at 240 kelvin.
TCL: Setting parameter langevinTemp to 240
TCL: Running for 100000 steps
ETITLE: TS BOND ANGLE DIHED IMPRP ELECT VDW BOUNDARY MISC KINETIC TOTAL TEMP POTENTIAL TOTAL3 TEMPAVG PRESSURE GPRESSURE VOLUME PRESSAVG GPRESSAVG
ENERGY: 700000 0.0000 0.0000 0.0000 0.0000 -12576.9588 1807.6621 0.0000 0.0000 1238.9696 -9530.3271 209.2910 -10769.2967 -9527.7233 209.2910 -979.0255 -908.0569 29315.0455 -979.0255 -908.0569
ENERGY: 800000 0.0000 0.0000 0.0000 0.0000 -12094.1282 1710.4670 0.0000 0.0000 1435.5198 -8948.1414 242.4929 -10383.6612 -8944.6590 239.8501 -456.3692 -294.9985 29499.7697 2.5857 2.5312
TCL: Running 100000 steps at 270 kelvin.
TCL: Setting parameter langevinTemp to 270
TCL: Running for 100000 steps
ETITLE: TS BOND ANGLE DIHED IMPRP ELECT VDW BOUNDARY MISC KINETIC TOTAL TEMP POTENTIAL TOTAL3 TEMPAVG PRESSURE GPRESSURE VOLUME PRESSAVG GPRESSAVG
ENERGY: 800000 0.0000 0.0000 0.0000 0.0000 -12094.1282 1710.4670 0.0000 0.0000 1434.8197 -8948.8415 242.3747 -10383.6612 -8946.6349 242.3747 -388.6406 -294.9505 29499.7697 -388.6406 -294.9505
ENERGY: 900000 0.0000 0.0000 0.0000 0.0000 -11503.8056 1612.6329 0.0000 0.0000 1583.1621 -8308.0105 267.4332 -9891.1727 -8307.3440 269.5083 340.1411 417.2863 29683.6243 3.8735 3.8719
TCL: Running 1000000 steps at 300 kelvin.
TCL: Setting parameter langevinTemp to 300
TCL: Running for 1000000 steps
ETITLE: TS BOND ANGLE DIHED IMPRP ELECT VDW BOUNDARY MISC KINETIC TOTAL TEMP POTENTIAL TOTAL3 TEMPAVG PRESSURE GPRESSURE VOLUME PRESSAVG GPRESSAVG
ENERGY: 900000 0.0000 0.0000 0.0000 0.0000 -11503.8056 1612.6329 0.0000 0.0000 1582.3686 -8308.8041 267.2991 -9891.1727 -8306.4386 267.2991 324.9889 414.7895 29683.6243 324.9889 414.7895
ENERGY: 1100000 0.0000 0.0000 0.0000 0.0000 -10953.9208 1453.1505 0.0000 0.0000 1779.6362 -7721.1341 300.6223 -9500.7704 -7721.2293 300.3033 -125.3054 -66.6877 30978.0914 3.3269 3.3578
ENERGY: 1300000 0.0000 0.0000 0.0000 0.0000 -11069.0891 1526.0656 0.0000 0.0000 1752.3425 -7790.6810 296.0117 -9543.0235 -7786.1644 300.3286 605.4301 746.2255 30150.9231 4.0853 4.0300
ENERGY: 1500000 0.0000 0.0000 0.0000 0.0000 -11006.3284 1483.9371 0.0000 0.0000 1795.6504 -7726.7409 303.3274 -9522.3913 -7723.9158 300.3255 247.5510 322.2114 30531.4344 4.1380 4.0865
ENERGY: 1700000 0.0000 0.0000 0.0000 0.0000 -10872.4265 1392.7273 0.0000 0.0000 1769.4017 -7710.2975 298.8934 -9479.6992 -7706.5682 300.3108 -588.2571 -472.5527 30920.5527 2.7430 2.6836
ENERGY: 1900000 0.0000 0.0000 0.0000 0.0000 -10769.5979 1355.6328 0.0000 0.0000 1747.2989 -7666.6662 295.1597 -9413.9651 -7666.1044 300.3897 -848.2461 -736.0984 31420.8362 3.2471 3.1964
TCL: Exiting due to exit command.
