Info: SIMULATION PARAMETERS:
Info: TIMESTEP               2
Info: NUMBER OF STEPS        0
Info: STEPS PER CYCLE        10
Info: PERIODIC CELL BASIS 1  36.592 0 0
Info: PERIODIC CELL BASIS 2  0 36.611 0
Info: PERIODIC CELL BASIS 3  0 0 33.876
Info: PERIODIC CELL CENTER   0 0 0
Info: WRAPPING WATERS AROUND PERIODIC BOUNDARIES ON OUTPUT.
Info: WRAPPING ALL CLUSTERS AROUND PERIODIC BOUNDARIES ON OUTPUT.
Info: FIRST LDB TIMESTEP     50
Info: LAST LDB TIMESTEP     -1
Info: HOM BACKGROUND SCALING 1
Info: PME BACKGROUND SCALING 1
Info: MIN ATOMS PER PATCH    40
Info: EMPTY PATCH LOAD       40 ATOMS
Info: INITIAL TEMPERATURE    300
Info: CENTER OF MASS MOVING INITIALLY? NO
Info: DIELECTRIC             1
Info: EXCLUDE                SCALED ONE-FOUR
Info: 1-4 ELECTROSTATICS SCALED BY 0.833333
Info: MODIFIED 1-4 VDW PARAMETERS WILL BE USED
Info: DCD FILENAME           mobley_5952846_equil.dcd
Info: DCD FREQUENCY          100000
Info: DCD FIRST STEP         100000
Info: DCD FILE WILL CONTAIN UNIT CELL DATA
Info: XST FILENAME           mobley_5952846_equil.xst
Info: XST FREQUENCY          100000
Info: NO VELOCITY DCD OUTPUT
Info: NO FORCE DCD OUTPUT
Info: OUTPUT FILENAME        mobley_5952846_equil
Info: BINARY OUTPUT FILES WILL BE USED
Info: RESTART FILENAME       mobley_5952846_equil.restart
Info: RESTART FREQUENCY      100000
Info: BINARY RESTART FILES WILL BE USED
Info: CUTOFF                 9
Info: PAIRLIST DISTANCE      11
Info: PAIRLIST SHRINK RATE   0.01
Info: PAIRLIST GROW RATE     0.01
Info: PAIRLIST TRIGGER       0.3
Info: PAIRLISTS PER CYCLE    2
Info: PAIRLISTS ENABLED
Info: MARGIN                 8
Info: HYDROGEN GROUP CUTOFF  2.5
Info: PATCH DIMENSION        21.5
Info: ENERGY OUTPUT STEPS    100000
Info: ENERGY EVALUATION STEPS    100000
Info: OUTPUT ENERGY PRECISION 4
Info: CROSSTERM ENERGY INCLUDED IN DIHEDRAL
Info: TIMING OUTPUT STEPS    1000000
Info: PRESSURE OUTPUT STEPS  100000
Info: FIXED ATOMS ACTIVE
Info: LANGEVIN DYNAMICS ACTIVE
Info: LANGEVIN TEMPERATURE   30
Info: LANGEVIN USING BBK INTEGRATOR
Info: LANGEVIN DAMPING COEFFICIENT IS 1 INVERSE PS
Info: LANGEVIN DYNAMICS APPLIED TO HYDROGENS
Info: LANGEVIN PISTON PRESSURE CONTROL ACTIVE
Info:        TARGET PRESSURE IS 1.01325 BAR
Info:     OSCILLATION PERIOD IS 50 FS
Info:             DECAY TIME IS 25 FS
Info:     PISTON TEMPERATURE IS 300 K
Info:       PRESSURE CONTROL IS GROUP-BASED
Info:    INITIAL STRAIN RATE IS 0 0 0
Info:       CELL FLUCTUATION IS ISOTROPIC
Info: PARTICLE MESH EWALD (PME) ACTIVE
Info: PME TOLERANCE               1e-06
Info: PME EWALD COEFFICIENT       0.348832
Info: PME INTERPOLATION ORDER     4
Info: PME GRID DIMENSIONS         40 40 36
Info: PME MAXIMUM GRID SPACING    1
Info: FULL ELECTROSTATIC EVALUATION FREQUENCY      2
Info: USING VERLET I (r-RESPA) MTS SCHEME.
Info: C1 SPLITTING OF LONG RANGE ELECTROSTATICS
Info: PLACING ATOMS IN PATCHES BY HYDROGEN GROUPS
Info: RIGID BONDS TO HYDROGEN : ALL
Info:         ERROR TOLERANCE : 1e-08
Info:          MAX ITERATIONS : 100
Info: RIGID WATER USING SETTLE ALGORITHM
Info: RANDOM NUMBER SEED     1743679215
Info: USE HYDROGEN BONDS?    NO
Info: Using AMBER format force field!
Info: AMBER PARM FILE        mobley_5952846.prmtop
Info: COORDINATE PDB         mobley_5952846.pdb
Info: Exclusions will be read from PARM file!
Info: SCNB (VDW SCALING)     2
Info: USING ARITHMETIC MEAN TO COMBINE L-J SIGMA PARAMETERS
Info: BINARY COORDINATES     mobley_5952846_min.coor
Info: SUMMARY OF PARAMETERS:
Info: 4 BONDS
Info: 2 ANGLES
Info:   2 HARMONIC
Info:   0 COSINE-BASED
Info: 2 DIHEDRAL
Info: 0 IMPROPER
Info: 0 CROSSTERM
Info: 0 VDW
Info: 10 VDW_PAIRS
Info: 0 NBTHOLE_PAIRS
Info: STRUCTURE SUMMARY:
Info: 2997 ATOMS
Info: 2996 BONDS
Info: 6 ANGLES
Info: 6 DIHEDRALS
Info: 0 IMPROPERS
Info: 0 CROSSTERMS
Info: 3006 EXCLUSIONS
Info: 6 FIXED ATOMS
Info: 2991 RIGID BONDS
Info: 0 RIGID BONDS BETWEEN FIXED ATOMS
Info: 5982 DEGREES OF FREEDOM
Info: 1003 HYDROGEN GROUPS
Info: 3 ATOMS IN LARGEST HYDROGEN GROUP
Info: 1003 MIGRATION GROUPS
Info: 3 ATOMS IN LARGEST MIGRATION GROUP
Info: 6 HYDROGEN GROUPS WITH ALL ATOMS FIXED
Info: TOTAL MASS = 18127.8 amu
Info: TOTAL CHARGE = -0.000200003 e
Info: MASS DENSITY = 0.663306 g/cm^3
Info: ATOM DENSITY = 0.0660385 atoms/A^3
Info: ADDED 0 IMPLICIT EXCLUSIONS
Info: NONBONDED TABLE R-SQUARED SPACING: 0.0625
Info: NONBONDED TABLE SIZE: 705 POINTS
Info: REMOVING COM VELOCITY -0.114857 0.235268 -0.0236129
TCL: Running for 100000 steps
ETITLE: TS BOND ANGLE DIHED IMPRP ELECT VDW BOUNDARY MISC KINETIC TOTAL TEMP POTENTIAL TOTAL3 TEMPAVG PRESSURE GPRESSURE VOLUME PRESSAVG GPRESSAVG
ENERGY: 0 0.0000 0.0000 0.0000 0.0000 -13845.7008 2421.0382 0.0000 0.0000 1781.9620 -9642.7007 299.8074 -11424.6627 -9642.3647 299.8074 402.9455 429.4802 45382.6512 402.9455 429.4802
ENERGY: 100000 0.0000 0.0000 0.0000 0.0000 -14408.5142 2455.3634 0.0000 0.0000 181.5008 -11771.6500 30.5367 -11953.1508 -11771.2900 30.8415 -581.3892 -525.4397 29488.2986 3.8697 3.8653
TCL: Running 100000 steps at 60 kelvin.
TCL: Setting parameter langevinTemp to 60
TCL: Running for 100000 steps
ETITLE: TS BOND ANGLE DIHED IMPRP ELECT VDW BOUNDARY MISC KINETIC TOTAL TEMP POTENTIAL TOTAL3 TEMPAVG PRESSURE GPRESSURE VOLUME PRESSAVG GPRESSAVG
ENERGY: 100000 0.0000 0.0000 0.0000 0.0000 -14408.5142 2455.3634 0.0000 0.0000 181.4096 -11771.7412 30.5214 -11953.1508 -11771.4441 30.5214 -577.8095 -525.4516 29488.2986 -577.8095 -525.4516
ENERGY: 200000 0.0000 0.0000 0.0000 0.0000 -14532.9484 2634.9409 0.0000 0.0000 356.5131 -11541.4943 59.9818 -11898.0075 -11540.4335 59.9259 1311.7811 1380.8772 28885.6945 4.7134 4.7073
TCL: Running 100000 steps at 90 kelvin.
TCL: Setting parameter langevinTemp to 90
TCL: Running for 100000 steps
ETITLE: TS BOND ANGLE DIHED IMPRP ELECT VDW BOUNDARY MISC KINETIC TOTAL TEMP POTENTIAL TOTAL3 TEMPAVG PRESSURE GPRESSURE VOLUME PRESSAVG GPRESSAVG
ENERGY: 200000 0.0000 0.0000 0.0000 0.0000 -14532.9484 2634.9409 0.0000 0.0000 356.3336 -11541.6739 59.9516 -11898.0075 -11541.0035 59.9516 1322.9841 1381.3894 28885.6945 1322.9841 1381.3894
ENERGY: 300000 0.0000 0.0000 0.0000 0.0000 -14157.9420 2394.5186 0.0000 0.0000 537.1439 -11226.2796 90.3721 -11763.4234 -11225.3242 90.0572 -133.2325 -67.6955 29272.2950 4.4706 4.6052
TCL: Running 100000 steps at 120 kelvin.
TCL: Setting parameter langevinTemp to 120
TCL: Running for 100000 steps
ETITLE: TS BOND ANGLE DIHED IMPRP ELECT VDW BOUNDARY MISC KINETIC TOTAL TEMP POTENTIAL TOTAL3 TEMPAVG PRESSURE GPRESSURE VOLUME PRESSAVG GPRESSAVG
ENERGY: 300000 0.0000 0.0000 0.0000 0.0000 -14157.9420 2394.5186 0.0000 0.0000 536.8694 -11226.5541 90.3260 -11763.4234 -11225.3868 90.3260 -129.1793 -68.4447 29272.2950 -129.1793 -68.4447
ENERGY: 400000 0.0000 0.0000 0.0000 0.0000 -13920.5834 2284.4254 0.0000 0.0000 728.5009 -10907.6570 122.5671 -11636.1579 -10906.2001 120.0080 -566.7712 -496.0610 29354.1455 3.9981 4.0400
TCL: Running 100000 steps at 150 kelvin.
TCL: Setting parameter langevinTemp to 150
TCL: Running for 100000 steps
ETITLE: TS BOND ANGLE DIHED IMPRP ELECT VDW BOUNDARY MISC KINETIC TOTAL TEMP POTENTIAL TOTAL3 TEMPAVG PRESSURE GPRESSURE VOLUME PRESSAVG GPRESSAVG
ENERGY: 400000 0.0000 0.0000 0.0000 0.0000 -13920.5834 2284.4254 0.0000 0.0000 728.1499 -10908.0081 122.5081 -11636.1579 -10906.4412 122.5081 -548.4130 -496.5722 29354.1455 -548.4130 -496.5722
ENERGY: 500000 0.0000 0.0000 0.0000 0.0000 -13736.6219 2250.3583 0.0000 0.0000 901.0964 -10585.1672 151.6056 -11486.2636 -10583.3882 150.3858 -279.2530 -196.7041 29191.8646 5.3448 5.3510
TCL: Running 100000 steps at 180 kelvin.
TCL: Setting parameter langevinTemp to 180
TCL: Running for 100000 steps
ETITLE: TS BOND ANGLE DIHED IMPRP ELECT VDW BOUNDARY MISC KINETIC TOTAL TEMP POTENTIAL TOTAL3 TEMPAVG PRESSURE GPRESSURE VOLUME PRESSAVG GPRESSAVG
ENERGY: 500000 0.0000 0.0000 0.0000 0.0000 -13736.6219 2250.3583 0.0000 0.0000 900.6525 -10585.6112 151.5309 -11486.2636 -10583.6996 151.5309 -259.9648 -197.6352 29191.8646 -259.9648 -197.6352
ENERGY: 600000 0.0000 0.0000 0.0000 0.0000 -13388.6783 2212.1898 0.0000 0.0000 1072.0689 -10104.4196 180.3710 -11176.4885 -10101.9371 180.1487 695.9334 722.7092 29102.1557 3.3975 3.4747
TCL: Running 100000 steps at 210 kelvin.
TCL: Setting parameter langevinTemp to 210
TCL: Running for 100000 steps
ETITLE: TS BOND ANGLE DIHED IMPRP ELECT VDW BOUNDARY MISC KINETIC TOTAL TEMP POTENTIAL TOTAL3 TEMPAVG PRESSURE GPRESSURE VOLUME PRESSAVG GPRESSAVG
ENERGY: 600000 0.0000 0.0000 0.0000 0.0000 -13388.6783 2212.1898 0.0000 0.0000 1071.5327 -10104.9558 180.2808 -11176.4885 -10103.1130 180.2808 661.8088 722.4458 29102.1557 661.8088 722.4458
ENERGY: 700000 0.0000 0.0000 0.0000 0.0000 -12690.1365 2008.7023 0.0000 0.0000 1254.1805 -9427.2537 211.0105 -10681.4342 -9425.4315 209.7617 1001.5331 1037.5493 28823.9234 1.9042 2.0774
TCL: Running 100000 steps at 240 kelvin.
TCL: Setting parameter langevinTemp to 240
TCL: Running for 100000 steps
ETITLE: TS BOND ANGLE DIHED IMPRP ELECT VDW BOUNDARY MISC KINETIC TOTAL TEMP POTENTIAL TOTAL3 TEMPAVG PRESSURE GPRESSURE VOLUME PRESSAVG GPRESSAVG
ENERGY: 700000 0.0000 0.0000 0.0000 0.0000 -12690.1365 2008.7023 0.0000 0.0000 1253.5727 -9427.8615 210.9082 -10681.4342 -9426.0433 210.9082 967.5654 1036.7728 28823.9234 967.5654 1036.7728
ENERGY: 800000 0.0000 0.0000 0.0000 0.0000 -11915.1609 1657.7324 0.0000 0.0000 1446.2164 -8811.2120 243.3197 -10257.4284 -8806.6822 240.4515 -856.1918 -787.8613 29948.1628 3.4990 3.5829
TCL: Running 100000 steps at 270 kelvin.
TCL: Setting parameter langevinTemp to 270
TCL: Running for 100000 steps
ETITLE: TS BOND ANGLE DIHED IMPRP ELECT VDW BOUNDARY MISC KINETIC TOTAL TEMP POTENTIAL TOTAL3 TEMPAVG PRESSURE GPRESSURE VOLUME PRESSAVG GPRESSAVG
ENERGY: 800000 0.0000 0.0000 0.0000 0.0000 -11915.1609 1657.7324 0.0000 0.0000 1445.5058 -8811.9227 243.2001 -10257.4284 -8808.8854 243.2001 -871.9839 -787.2166 29948.1628 -871.9839 -787.2166
ENERGY: 900000 0.0000 0.0000 0.0000 0.0000 -11379.4060 1548.8549 0.0000 0.0000 1605.4686 -8225.0825 270.1132 -9830.5511 -8221.5295 270.2338 -314.3649 -284.4516 30511.1862 3.8923 3.8942
TCL: Running 1000000 steps at 300 kelvin.
TCL: Setting parameter langevinTemp to 300
TCL: Running for 1000000 steps
ETITLE: TS BOND ANGLE DIHED IMPRP ELECT VDW BOUNDARY MISC KINETIC TOTAL TEMP POTENTIAL TOTAL3 TEMPAVG PRESSURE GPRESSURE VOLUME PRESSAVG GPRESSAVG
ENERGY: 900000 0.0000 0.0000 0.0000 0.0000 -11379.4060 1548.8549 0.0000 0.0000 1604.6630 -8225.8880 269.9777 -9830.5511 -8223.5879 269.9777 -372.8484 -284.4861 30511.1862 -372.8484 -284.4861
ENERGY: 1100000 0.0000 0.0000 0.0000 0.0000 -10894.6064 1449.1696 0.0000 0.0000 1747.5540 -7697.8827 294.0185 -9445.4368 -7696.8098 300.0955 -99.5404 15.2870 30722.0616 3.8007 3.9316
ENERGY: 1300000 0.0000 0.0000 0.0000 0.0000 -10759.7942 1356.7423 0.0000 0.0000 1894.3348 -7508.7170 318.7137 -9403.0519 -7506.8973 301.2293 -556.4316 -459.6557 30785.9256 3.3235 3.2246
ENERGY: 1500000 0.0000 0.0000 0.0000 0.0000 -10899.3138 1412.2907 0.0000 0.0000 1808.0346 -7678.9885 304.1940 -9487.0231 -7675.2828 299.9238 -360.9370 -319.2180 30617.9987 3.3068 3.1447
ENERGY: 1700000 0.0000 0.0000 0.0000 0.0000 -10888.0796 1419.2565 0.0000 0.0000 1809.6481 -7659.1749 304.4655 -9468.8231 -7656.4176 300.7051 -428.7221 -379.6426 30920.3971 3.4927 3.4942
ENERGY: 1900000 0.0000 0.0000 0.0000 0.0000 -10941.4696 1442.1023 0.0000 0.0000 1802.7170 -7696.6502 303.2994 -9499.3673 -7692.6787 300.0578 -87.3339 -31.7653 30553.5198 3.3494 3.3648
TCL: Exiting due to exit command.
