Info: SIMULATION PARAMETERS:
Info: TIMESTEP               2
Info: NUMBER OF STEPS        0
Info: STEPS PER CYCLE        10
Info: PERIODIC CELL BASIS 1  36.281 0 0
Info: PERIODIC CELL BASIS 2  0 34.26 0
Info: PERIODIC CELL BASIS 3  0 0 35.723
Info: PERIODIC CELL CENTER   0 0 0
Info: WRAPPING WATERS AROUND PERIODIC BOUNDARIES ON OUTPUT.
Info: WRAPPING ALL CLUSTERS AROUND PERIODIC BOUNDARIES ON OUTPUT.
Info: FIRST LDB TIMESTEP     50
Info: LAST LDB TIMESTEP     -1
Info: HOM BACKGROUND SCALING 1
Info: PME BACKGROUND SCALING 1
Info: MIN ATOMS PER PATCH    40
Info: EMPTY PATCH LOAD       40 ATOMS
Info: INITIAL TEMPERATURE    300
Info: CENTER OF MASS MOVING INITIALLY? NO
Info: DIELECTRIC             1
Info: EXCLUDE                SCALED ONE-FOUR
Info: 1-4 ELECTROSTATICS SCALED BY 0.833333
Info: MODIFIED 1-4 VDW PARAMETERS WILL BE USED
Info: DCD FILENAME           mobley_628086_equil.dcd
Info: DCD FREQUENCY          100000
Info: DCD FIRST STEP         100000
Info: DCD FILE WILL CONTAIN UNIT CELL DATA
Info: XST FILENAME           mobley_628086_equil.xst
Info: XST FREQUENCY          100000
Info: NO VELOCITY DCD OUTPUT
Info: NO FORCE DCD OUTPUT
Info: OUTPUT FILENAME        mobley_628086_equil
Info: BINARY OUTPUT FILES WILL BE USED
Info: RESTART FILENAME       mobley_628086_equil.restart
Info: RESTART FREQUENCY      100000
Info: BINARY RESTART FILES WILL BE USED
Info: CUTOFF                 9
Info: PAIRLIST DISTANCE      11
Info: PAIRLIST SHRINK RATE   0.01
Info: PAIRLIST GROW RATE     0.01
Info: PAIRLIST TRIGGER       0.3
Info: PAIRLISTS PER CYCLE    2
Info: PAIRLISTS ENABLED
Info: MARGIN                 8
Info: HYDROGEN GROUP CUTOFF  2.5
Info: PATCH DIMENSION        21.5
Info: ENERGY OUTPUT STEPS    100000
Info: ENERGY EVALUATION STEPS    100000
Info: OUTPUT ENERGY PRECISION 4
Info: CROSSTERM ENERGY INCLUDED IN DIHEDRAL
Info: TIMING OUTPUT STEPS    1000000
Info: PRESSURE OUTPUT STEPS  100000
Info: FIXED ATOMS ACTIVE
Info: LANGEVIN DYNAMICS ACTIVE
Info: LANGEVIN TEMPERATURE   30
Info: LANGEVIN USING BBK INTEGRATOR
Info: LANGEVIN DAMPING COEFFICIENT IS 1 INVERSE PS
Info: LANGEVIN DYNAMICS APPLIED TO HYDROGENS
Info: LANGEVIN PISTON PRESSURE CONTROL ACTIVE
Info:        TARGET PRESSURE IS 1.01325 BAR
Info:     OSCILLATION PERIOD IS 50 FS
Info:             DECAY TIME IS 25 FS
Info:     PISTON TEMPERATURE IS 300 K
Info:       PRESSURE CONTROL IS GROUP-BASED
Info:    INITIAL STRAIN RATE IS 0 0 0
Info:       CELL FLUCTUATION IS ISOTROPIC
Info: PARTICLE MESH EWALD (PME) ACTIVE
Info: PME TOLERANCE               1e-06
Info: PME EWALD COEFFICIENT       0.348832
Info: PME INTERPOLATION ORDER     4
Info: PME GRID DIMENSIONS         40 36 36
Info: PME MAXIMUM GRID SPACING    1
Info: FULL ELECTROSTATIC EVALUATION FREQUENCY      2
Info: USING VERLET I (r-RESPA) MTS SCHEME.
Info: C1 SPLITTING OF LONG RANGE ELECTROSTATICS
Info: PLACING ATOMS IN PATCHES BY HYDROGEN GROUPS
Info: RIGID BONDS TO HYDROGEN : ALL
Info:         ERROR TOLERANCE : 1e-08
Info:          MAX ITERATIONS : 100
Info: RIGID WATER USING SETTLE ALGORITHM
Info: RANDOM NUMBER SEED     1743720899
Info: USE HYDROGEN BONDS?    NO
Info: Using AMBER format force field!
Info: AMBER PARM FILE        mobley_628086.prmtop
Info: COORDINATE PDB         mobley_628086.pdb
Info: Exclusions will be read from PARM file!
Info: SCNB (VDW SCALING)     2
Info: USING ARITHMETIC MEAN TO COMBINE L-J SIGMA PARAMETERS
Info: BINARY COORDINATES     mobley_628086_min.coor
Info: SUMMARY OF PARAMETERS:
Info: 8 BONDS
Info: 9 ANGLES
Info:   9 HARMONIC
Info:   0 COSINE-BASED
Info: 6 DIHEDRAL
Info: 0 IMPROPER
Info: 0 CROSSTERM
Info: 0 VDW
Info: 28 VDW_PAIRS
Info: 0 NBTHOLE_PAIRS
Info: STRUCTURE SUMMARY:
Info: 2928 ATOMS
Info: 2927 BONDS
Info: 19 ANGLES
Info: 29 DIHEDRALS
Info: 0 IMPROPERS
Info: 0 CROSSTERMS
Info: 2967 EXCLUSIONS
Info: 12 FIXED ATOMS
Info: 2921 RIGID BONDS
Info: 5 RIGID BONDS BETWEEN FIXED ATOMS
Info: 5832 DEGREES OF FREEDOM
Info: 979 HYDROGEN GROUPS
Info: 4 ATOMS IN LARGEST HYDROGEN GROUP
Info: 979 MIGRATION GROUPS
Info: 4 ATOMS IN LARGEST MIGRATION GROUP
Info: 7 HYDROGEN GROUPS WITH ALL ATOMS FIXED
Info: TOTAL MASS = 17625.6 amu
Info: TOTAL CHARGE = -0.000100069 e
Info: MASS DENSITY = 0.659157 g/cm^3
Info: ATOM DENSITY = 0.0659412 atoms/A^3
Info: ADDED 0 IMPLICIT EXCLUSIONS
Info: NONBONDED TABLE R-SQUARED SPACING: 0.0625
Info: NONBONDED TABLE SIZE: 705 POINTS
Info: REMOVING COM VELOCITY 0.131801 0.0455865 0.0285568
TCL: Running for 100000 steps
ETITLE: TS BOND ANGLE DIHED IMPRP ELECT VDW BOUNDARY MISC KINETIC TOTAL TEMP POTENTIAL TOTAL3 TEMPAVG PRESSURE GPRESSURE VOLUME PRESSAVG GPRESSAVG
ENERGY: 0 0.0000 0.0000 0.0000 0.0000 -13623.7061 2352.1412 0.0000 0.0000 1734.2908 -9537.2741 299.2918 -11271.5649 -9536.9328 299.2918 103.0443 135.2237 44403.2267 103.0443 135.2237
ENERGY: 100000 0.0000 0.0000 0.0000 0.0000 -14057.6960 2394.3593 0.0000 0.0000 174.4721 -11488.8645 30.1092 -11663.3367 -11488.1626 30.8654 -671.8123 -627.2523 29965.6233 3.5370 3.5199
TCL: Running 100000 steps at 60 kelvin.
TCL: Setting parameter langevinTemp to 60
TCL: Running for 100000 steps
ETITLE: TS BOND ANGLE DIHED IMPRP ELECT VDW BOUNDARY MISC KINETIC TOTAL TEMP POTENTIAL TOTAL3 TEMPAVG PRESSURE GPRESSURE VOLUME PRESSAVG GPRESSAVG
ENERGY: 100000 0.0000 0.0000 0.0000 0.0000 -14057.6960 2394.3593 0.0000 0.0000 174.3835 -11488.9531 30.0939 -11663.3367 -11488.5506 30.0939 -670.3908 -626.9685 29965.6233 -670.3908 -626.9685
ENERGY: 200000 0.0000 0.0000 0.0000 0.0000 -13962.7744 2344.4625 0.0000 0.0000 346.6172 -11271.6946 59.8168 -11618.3118 -11270.4758 59.9796 -738.0832 -742.8246 29454.7479 2.6022 2.5602
TCL: Running 100000 steps at 90 kelvin.
TCL: Setting parameter langevinTemp to 90
TCL: Running for 100000 steps
ETITLE: TS BOND ANGLE DIHED IMPRP ELECT VDW BOUNDARY MISC KINETIC TOTAL TEMP POTENTIAL TOTAL3 TEMPAVG PRESSURE GPRESSURE VOLUME PRESSAVG GPRESSAVG
ENERGY: 200000 0.0000 0.0000 0.0000 0.0000 -13962.7744 2344.4625 0.0000 0.0000 346.4439 -11271.8680 59.7869 -11618.3118 -11271.1642 59.7869 -792.0716 -742.5101 29454.7479 -792.0716 -742.5101
ENERGY: 300000 0.0000 0.0000 0.0000 0.0000 -13994.3617 2480.8674 0.0000 0.0000 522.6031 -10990.8911 90.1872 -11513.4943 -10989.4747 89.9041 911.0221 980.2266 28999.5752 4.9605 5.0370
TCL: Running 100000 steps at 120 kelvin.
TCL: Setting parameter langevinTemp to 120
TCL: Running for 100000 steps
ETITLE: TS BOND ANGLE DIHED IMPRP ELECT VDW BOUNDARY MISC KINETIC TOTAL TEMP POTENTIAL TOTAL3 TEMPAVG PRESSURE GPRESSURE VOLUME PRESSAVG GPRESSAVG
ENERGY: 300000 0.0000 0.0000 0.0000 0.0000 -13994.3617 2480.8674 0.0000 0.0000 522.3412 -10991.1531 90.1420 -11513.4943 -10990.1628 90.1420 934.1742 980.8633 28999.5752 934.1742 980.8633
ENERGY: 400000 0.0000 0.0000 0.0000 0.0000 -13655.2135 2238.3274 0.0000 0.0000 673.6584 -10743.2277 116.2553 -11416.8861 -10741.2983 119.7733 -722.8027 -691.9317 29159.0206 3.0140 2.8797
TCL: Running 100000 steps at 150 kelvin.
TCL: Setting parameter langevinTemp to 150
TCL: Running for 100000 steps
ETITLE: TS BOND ANGLE DIHED IMPRP ELECT VDW BOUNDARY MISC KINETIC TOTAL TEMP POTENTIAL TOTAL3 TEMPAVG PRESSURE GPRESSURE VOLUME PRESSAVG GPRESSAVG
ENERGY: 400000 0.0000 0.0000 0.0000 0.0000 -13655.2135 2238.3274 0.0000 0.0000 673.3023 -10743.5838 116.1938 -11416.8861 -10742.2795 116.1938 -740.5143 -691.8572 29159.0206 -740.5143 -691.8572
ENERGY: 500000 0.0000 0.0000 0.0000 0.0000 -13475.3102 2181.4233 0.0000 0.0000 877.9534 -10415.9334 151.5111 -11293.8868 -10412.5545 149.6838 -738.0379 -681.8572 29064.9513 4.5547 4.4195
TCL: Running 100000 steps at 180 kelvin.
TCL: Setting parameter langevinTemp to 180
TCL: Running for 100000 steps
ETITLE: TS BOND ANGLE DIHED IMPRP ELECT VDW BOUNDARY MISC KINETIC TOTAL TEMP POTENTIAL TOTAL3 TEMPAVG PRESSURE GPRESSURE VOLUME PRESSAVG GPRESSAVG
ENERGY: 500000 0.0000 0.0000 0.0000 0.0000 -13475.3102 2181.4233 0.0000 0.0000 877.5257 -10416.3612 151.4372 -11293.8868 -10414.6277 151.4372 -733.6155 -681.0478 29064.9513 -733.6155 -681.0478
ENERGY: 600000 0.0000 0.0000 0.0000 0.0000 -13107.2120 2110.8636 0.0000 0.0000 1059.8337 -9936.5147 182.8987 -10996.3484 -9935.8212 180.2156 11.5301 101.7927 28522.7925 5.0085 5.0837
TCL: Running 100000 steps at 210 kelvin.
TCL: Setting parameter langevinTemp to 210
TCL: Running for 100000 steps
ETITLE: TS BOND ANGLE DIHED IMPRP ELECT VDW BOUNDARY MISC KINETIC TOTAL TEMP POTENTIAL TOTAL3 TEMPAVG PRESSURE GPRESSURE VOLUME PRESSAVG GPRESSAVG
ENERGY: 600000 0.0000 0.0000 0.0000 0.0000 -13107.2120 2110.8636 0.0000 0.0000 1059.3276 -9937.0208 182.8114 -10996.3484 -9934.8584 182.8114 32.8038 100.0287 28522.7925 32.8038 100.0287
ENERGY: 700000 0.0000 0.0000 0.0000 0.0000 -12359.8630 1830.7644 0.0000 0.0000 1253.2279 -9275.8707 216.2733 -10529.0986 -9272.4211 209.9745 -759.5398 -596.5326 28980.4059 3.3782 3.3130
TCL: Running 100000 steps at 240 kelvin.
TCL: Setting parameter langevinTemp to 240
TCL: Running for 100000 steps
ETITLE: TS BOND ANGLE DIHED IMPRP ELECT VDW BOUNDARY MISC KINETIC TOTAL TEMP POTENTIAL TOTAL3 TEMPAVG PRESSURE GPRESSURE VOLUME PRESSAVG GPRESSAVG
ENERGY: 700000 0.0000 0.0000 0.0000 0.0000 -12359.8630 1830.7644 0.0000 0.0000 1252.6025 -9276.4961 216.1654 -10529.0986 -9273.9546 216.1654 -671.6557 -596.3081 28980.4059 -671.6557 -596.3081
ENERGY: 800000 0.0000 0.0000 0.0000 0.0000 -11607.6734 1607.6613 0.0000 0.0000 1382.6023 -8617.4098 238.5998 -10000.0121 -8614.5619 240.2416 -571.5506 -524.8128 29098.1716 3.9914 4.2690
TCL: Running 100000 steps at 270 kelvin.
TCL: Setting parameter langevinTemp to 270
TCL: Running for 100000 steps
ETITLE: TS BOND ANGLE DIHED IMPRP ELECT VDW BOUNDARY MISC KINETIC TOTAL TEMP POTENTIAL TOTAL3 TEMPAVG PRESSURE GPRESSURE VOLUME PRESSAVG GPRESSAVG
ENERGY: 800000 0.0000 0.0000 0.0000 0.0000 -11607.6734 1607.6613 0.0000 0.0000 1381.9185 -8618.0935 238.4818 -10000.0121 -8615.6912 238.4818 -587.3252 -525.0960 29098.1716 -587.3252 -525.0960
ENERGY: 900000 0.0000 0.0000 0.0000 0.0000 -11190.7190 1548.7172 0.0000 0.0000 1594.8592 -8047.1426 275.2297 -9642.0018 -8045.2769 270.1307 33.5737 138.9328 29305.8673 4.3598 4.4705
TCL: Running 1000000 steps at 300 kelvin.
TCL: Setting parameter langevinTemp to 300
TCL: Running for 1000000 steps
ETITLE: TS BOND ANGLE DIHED IMPRP ELECT VDW BOUNDARY MISC KINETIC TOTAL TEMP POTENTIAL TOTAL3 TEMPAVG PRESSURE GPRESSURE VOLUME PRESSAVG GPRESSAVG
ENERGY: 900000 0.0000 0.0000 0.0000 0.0000 -11190.7190 1548.7172 0.0000 0.0000 1594.0974 -8047.9044 275.0982 -9642.0018 -8045.9132 275.0982 52.3458 138.1043 29305.8673 52.3458 138.1043
ENERGY: 1100000 0.0000 0.0000 0.0000 0.0000 -10607.4506 1318.0294 0.0000 0.0000 1746.6867 -7542.7345 301.4310 -9289.4212 -7540.6501 300.8876 -877.3685 -802.0651 30036.8732 2.6275 2.4810
ENERGY: 1300000 0.0000 0.0000 0.0000 0.0000 -10739.8145 1490.0400 0.0000 0.0000 1763.8725 -7485.9019 304.3968 -9249.7744 -7481.9028 300.0092 631.4868 759.5805 30021.6787 2.2612 2.2642
ENERGY: 1500000 0.0000 0.0000 0.0000 0.0000 -10675.4054 1400.0220 0.0000 0.0000 1720.2415 -7555.1419 296.8673 -9275.3834 -7552.8952 300.6802 -310.0174 -344.9934 30456.5027 3.3559 3.3042
ENERGY: 1700000 0.0000 0.0000 0.0000 0.0000 -10547.0398 1349.3868 0.0000 0.0000 1701.4708 -7496.1822 293.6279 -9197.6530 -7492.2750 300.2945 -514.7539 -426.1153 30561.3622 1.4101 1.5898
ENERGY: 1900000 0.0000 0.0000 0.0000 0.0000 -10868.6755 1520.2154 0.0000 0.0000 1707.4209 -7641.0393 294.6548 -9348.4601 -7637.8745 300.6690 899.3146 973.7323 29486.8467 3.4383 3.3663
TCL: Exiting due to exit command.
