Info: SIMULATION PARAMETERS:
Info: TIMESTEP               2
Info: NUMBER OF STEPS        0
Info: STEPS PER CYCLE        10
Info: PERIODIC CELL BASIS 1  35.89 0 0
Info: PERIODIC CELL BASIS 2  0 35.779 0
Info: PERIODIC CELL BASIS 3  0 0 34.68
Info: PERIODIC CELL CENTER   0 0 0
Info: WRAPPING WATERS AROUND PERIODIC BOUNDARIES ON OUTPUT.
Info: WRAPPING ALL CLUSTERS AROUND PERIODIC BOUNDARIES ON OUTPUT.
Info: FIRST LDB TIMESTEP     50
Info: LAST LDB TIMESTEP     -1
Info: HOM BACKGROUND SCALING 1
Info: PME BACKGROUND SCALING 1
Info: MIN ATOMS PER PATCH    40
Info: EMPTY PATCH LOAD       40 ATOMS
Info: INITIAL TEMPERATURE    300
Info: CENTER OF MASS MOVING INITIALLY? NO
Info: DIELECTRIC             1
Info: EXCLUDE                SCALED ONE-FOUR
Info: 1-4 ELECTROSTATICS SCALED BY 0.833333
Info: MODIFIED 1-4 VDW PARAMETERS WILL BE USED
Info: DCD FILENAME           mobley_646007_equil.dcd
Info: DCD FREQUENCY          100000
Info: DCD FIRST STEP         100000
Info: DCD FILE WILL CONTAIN UNIT CELL DATA
Info: XST FILENAME           mobley_646007_equil.xst
Info: XST FREQUENCY          100000
Info: NO VELOCITY DCD OUTPUT
Info: NO FORCE DCD OUTPUT
Info: OUTPUT FILENAME        mobley_646007_equil
Info: BINARY OUTPUT FILES WILL BE USED
Info: RESTART FILENAME       mobley_646007_equil.restart
Info: RESTART FREQUENCY      100000
Info: BINARY RESTART FILES WILL BE USED
Info: CUTOFF                 9
Info: PAIRLIST DISTANCE      11
Info: PAIRLIST SHRINK RATE   0.01
Info: PAIRLIST GROW RATE     0.01
Info: PAIRLIST TRIGGER       0.3
Info: PAIRLISTS PER CYCLE    2
Info: PAIRLISTS ENABLED
Info: MARGIN                 8
Info: HYDROGEN GROUP CUTOFF  2.5
Info: PATCH DIMENSION        21.5
Info: ENERGY OUTPUT STEPS    100000
Info: ENERGY EVALUATION STEPS    100000
Info: OUTPUT ENERGY PRECISION 4
Info: CROSSTERM ENERGY INCLUDED IN DIHEDRAL
Info: TIMING OUTPUT STEPS    1000000
Info: PRESSURE OUTPUT STEPS  100000
Info: FIXED ATOMS ACTIVE
Info: LANGEVIN DYNAMICS ACTIVE
Info: LANGEVIN TEMPERATURE   30
Info: LANGEVIN USING BBK INTEGRATOR
Info: LANGEVIN DAMPING COEFFICIENT IS 1 INVERSE PS
Info: LANGEVIN DYNAMICS APPLIED TO HYDROGENS
Info: LANGEVIN PISTON PRESSURE CONTROL ACTIVE
Info:        TARGET PRESSURE IS 1.01325 BAR
Info:     OSCILLATION PERIOD IS 50 FS
Info:             DECAY TIME IS 25 FS
Info:     PISTON TEMPERATURE IS 300 K
Info:       PRESSURE CONTROL IS GROUP-BASED
Info:    INITIAL STRAIN RATE IS 0 0 0
Info:       CELL FLUCTUATION IS ISOTROPIC
Info: PARTICLE MESH EWALD (PME) ACTIVE
Info: PME TOLERANCE               1e-06
Info: PME EWALD COEFFICIENT       0.348832
Info: PME INTERPOLATION ORDER     4
Info: PME GRID DIMENSIONS         36 36 36
Info: PME MAXIMUM GRID SPACING    1
Info: FULL ELECTROSTATIC EVALUATION FREQUENCY      2
Info: USING VERLET I (r-RESPA) MTS SCHEME.
Info: C1 SPLITTING OF LONG RANGE ELECTROSTATICS
Info: PLACING ATOMS IN PATCHES BY HYDROGEN GROUPS
Info: RIGID BONDS TO HYDROGEN : ALL
Info:         ERROR TOLERANCE : 1e-08
Info:          MAX ITERATIONS : 100
Info: RIGID WATER USING SETTLE ALGORITHM
Info: RANDOM NUMBER SEED     1743731195
Info: USE HYDROGEN BONDS?    NO
Info: Using AMBER format force field!
Info: AMBER PARM FILE        mobley_646007.prmtop
Info: COORDINATE PDB         mobley_646007.pdb
Info: Exclusions will be read from PARM file!
Info: SCNB (VDW SCALING)     2
Info: USING ARITHMETIC MEAN TO COMBINE L-J SIGMA PARAMETERS
Info: BINARY COORDINATES     mobley_646007_min.coor
Info: SUMMARY OF PARAMETERS:
Info: 7 BONDS
Info: 9 ANGLES
Info: 8 DIHEDRAL
Info: 0 IMPROPER
Info: 0 CROSSTERM
Info: 0 VDW
Info: 28 VDW_PAIRS
Info: 0 NBTHOLE_PAIRS
Info: STRUCTURE SUMMARY:
Info: 2909 ATOMS
Info: 2909 BONDS
Info: 27 ANGLES
Info: 43 DIHEDRALS
Info: 0 IMPROPERS
Info: 0 CROSSTERMS
Info: 2970 EXCLUSIONS
Info: 14 FIXED ATOMS
Info: 2904 RIGID BONDS
Info: 9 RIGID BONDS BETWEEN FIXED ATOMS
Info: 5790 DEGREES OF FREEDOM
Info: 970 HYDROGEN GROUPS
Info: 3 ATOMS IN LARGEST HYDROGEN GROUP
Info: 970 MIGRATION GROUPS
Info: 3 ATOMS IN LARGEST MIGRATION GROUP
Info: 5 HYDROGEN GROUPS WITH ALL ATOMS FIXED
Info: TOTAL MASS = 17456.6 amu
Info: TOTAL CHARGE = -2.98023e-08 e
Info: MASS DENSITY = 0.650934 g/cm^3
Info: ATOM DENSITY = 0.0653225 atoms/A^3
Info: ADDED 0 IMPLICIT EXCLUSIONS
Info: NONBONDED TABLE R-SQUARED SPACING: 0.0625
Info: NONBONDED TABLE SIZE: 705 POINTS
Info: REMOVING COM VELOCITY -0.0308457 -0.182559 -0.0549349
TCL: Running for 100000 steps
ETITLE: TS BOND ANGLE DIHED IMPRP ELECT VDW BOUNDARY MISC KINETIC TOTAL TEMP POTENTIAL TOTAL3 TEMPAVG PRESSURE GPRESSURE VOLUME PRESSAVG GPRESSAVG
ENERGY: 0 0.0000 0.0000 0.0000 0.0000 -13496.8968 2411.4676 0.0000 0.0000 1726.9984 -9358.4308 300.1952 -11085.4292 -9358.1058 300.1952 701.2593 730.3249 44532.8762 701.2593 730.3249
ENERGY: 100000 0.0000 0.0000 0.0000 0.0000 -14022.6870 2374.6584 0.0000 0.0000 168.9737 -11479.0549 29.3718 -11648.0286 -11478.7248 30.9428 -512.8273 -457.3923 28144.0435 5.2197 5.2165
TCL: Running 100000 steps at 60 kelvin.
TCL: Setting parameter langevinTemp to 60
TCL: Running for 100000 steps
ETITLE: TS BOND ANGLE DIHED IMPRP ELECT VDW BOUNDARY MISC KINETIC TOTAL TEMP POTENTIAL TOTAL3 TEMPAVG PRESSURE GPRESSURE VOLUME PRESSAVG GPRESSAVG
ENERGY: 100000 0.0000 0.0000 0.0000 0.0000 -14022.6870 2374.6584 0.0000 0.0000 168.8901 -11479.1385 29.3573 -11648.0286 -11478.7648 29.3573 -492.2106 -457.5213 28144.0435 -492.2106 -457.5213
ENERGY: 200000 0.0000 0.0000 0.0000 0.0000 -13978.6151 2417.3187 0.0000 0.0000 338.0777 -11223.2187 58.7663 -11561.2964 -11222.4542 59.8507 218.0823 273.1694 28190.5476 4.1234 4.1008
TCL: Running 100000 steps at 90 kelvin.
TCL: Setting parameter langevinTemp to 90
TCL: Running for 100000 steps
ETITLE: TS BOND ANGLE DIHED IMPRP ELECT VDW BOUNDARY MISC KINETIC TOTAL TEMP POTENTIAL TOTAL3 TEMPAVG PRESSURE GPRESSURE VOLUME PRESSAVG GPRESSAVG
ENERGY: 200000 0.0000 0.0000 0.0000 0.0000 -13978.6151 2417.3187 0.0000 0.0000 337.9017 -11223.3947 58.7357 -11561.2964 -11222.8349 58.7357 221.1073 273.2403 28190.5476 221.1073 273.2403
ENERGY: 300000 0.0000 0.0000 0.0000 0.0000 -13751.8913 2316.3273 0.0000 0.0000 519.8418 -10915.7223 90.3614 -11435.5640 -10914.8491 90.0333 -175.8761 -128.0979 28290.4080 4.2466 4.3035
TCL: Running 100000 steps at 120 kelvin.
TCL: Setting parameter langevinTemp to 120
TCL: Running for 100000 steps
ETITLE: TS BOND ANGLE DIHED IMPRP ELECT VDW BOUNDARY MISC KINETIC TOTAL TEMP POTENTIAL TOTAL3 TEMPAVG PRESSURE GPRESSURE VOLUME PRESSAVG GPRESSAVG
ENERGY: 300000 0.0000 0.0000 0.0000 0.0000 -13751.8913 2316.3273 0.0000 0.0000 519.5857 -10915.9783 90.3169 -11435.5640 -10914.8788 90.3169 -179.2479 -128.3097 28290.4080 -179.2479 -128.3097
ENERGY: 400000 0.0000 0.0000 0.0000 0.0000 -13495.1293 2162.7637 0.0000 0.0000 689.2541 -10643.1115 119.8095 -11332.3656 -10640.9872 120.2048 -982.0790 -909.7194 28305.3474 4.6749 4.8493
TCL: Running 100000 steps at 150 kelvin.
TCL: Setting parameter langevinTemp to 150
TCL: Running for 100000 steps
ETITLE: TS BOND ANGLE DIHED IMPRP ELECT VDW BOUNDARY MISC KINETIC TOTAL TEMP POTENTIAL TOTAL3 TEMPAVG PRESSURE GPRESSURE VOLUME PRESSAVG GPRESSAVG
ENERGY: 400000 0.0000 0.0000 0.0000 0.0000 -13495.1293 2162.7637 0.0000 0.0000 688.9060 -10643.4596 119.7490 -11332.3656 -10641.9865 119.7490 -962.8869 -909.1174 28305.3474 -962.8869 -909.1174
ENERGY: 500000 0.0000 0.0000 0.0000 0.0000 -13442.5144 2255.3599 0.0000 0.0000 887.2994 -10299.8551 154.2347 -11187.1545 -10298.3264 149.9382 391.8496 407.8835 28218.6199 4.3619 4.2522
TCL: Running 100000 steps at 180 kelvin.
TCL: Setting parameter langevinTemp to 180
TCL: Running for 100000 steps
ETITLE: TS BOND ANGLE DIHED IMPRP ELECT VDW BOUNDARY MISC KINETIC TOTAL TEMP POTENTIAL TOTAL3 TEMPAVG PRESSURE GPRESSURE VOLUME PRESSAVG GPRESSAVG
ENERGY: 500000 0.0000 0.0000 0.0000 0.0000 -13442.5144 2255.3599 0.0000 0.0000 886.8530 -10300.3015 154.1571 -11187.1545 -10298.3877 154.1571 365.2564 408.6021 28218.6199 365.2564 408.6021
ENERGY: 600000 0.0000 0.0000 0.0000 0.0000 -12884.4079 1991.4564 0.0000 0.0000 1011.2021 -9881.7494 175.7720 -10892.9515 -9879.2157 179.6907 -959.4877 -924.7049 28907.7533 3.5333 3.5002
TCL: Running 100000 steps at 210 kelvin.
TCL: Setting parameter langevinTemp to 210
TCL: Running for 100000 steps
ETITLE: TS BOND ANGLE DIHED IMPRP ELECT VDW BOUNDARY MISC KINETIC TOTAL TEMP POTENTIAL TOTAL3 TEMPAVG PRESSURE GPRESSURE VOLUME PRESSAVG GPRESSAVG
ENERGY: 600000 0.0000 0.0000 0.0000 0.0000 -12884.4079 1991.4564 0.0000 0.0000 1010.6661 -9882.2854 175.6789 -10892.9515 -9880.3360 175.6789 -983.5462 -925.2787 28907.7533 -983.5462 -925.2787
ENERGY: 700000 0.0000 0.0000 0.0000 0.0000 -12236.4288 1823.9410 0.0000 0.0000 1197.2729 -9215.2150 208.1158 -10412.4878 -9211.9679 210.1569 -513.7109 -407.2286 28479.1373 3.4786 3.4649
TCL: Running 100000 steps at 240 kelvin.
TCL: Setting parameter langevinTemp to 240
TCL: Running for 100000 steps
ETITLE: TS BOND ANGLE DIHED IMPRP ELECT VDW BOUNDARY MISC KINETIC TOTAL TEMP POTENTIAL TOTAL3 TEMPAVG PRESSURE GPRESSURE VOLUME PRESSAVG GPRESSAVG
ENERGY: 700000 0.0000 0.0000 0.0000 0.0000 -12236.4288 1823.9410 0.0000 0.0000 1196.7027 -9215.7851 208.0167 -10412.4878 -9213.7846 208.0167 -499.4493 -407.3766 28479.1373 -499.4493 -407.3766
ENERGY: 800000 0.0000 0.0000 0.0000 0.0000 -11835.1692 1765.8320 0.0000 0.0000 1394.0542 -8675.2829 242.3212 -10069.3371 -8673.2837 240.1705 236.1867 305.9038 28726.8392 4.2277 3.9957
TCL: Running 100000 steps at 270 kelvin.
TCL: Setting parameter langevinTemp to 270
TCL: Running for 100000 steps
ETITLE: TS BOND ANGLE DIHED IMPRP ELECT VDW BOUNDARY MISC KINETIC TOTAL TEMP POTENTIAL TOTAL3 TEMPAVG PRESSURE GPRESSURE VOLUME PRESSAVG GPRESSAVG
ENERGY: 800000 0.0000 0.0000 0.0000 0.0000 -11835.1692 1765.8320 0.0000 0.0000 1393.3765 -8675.9606 242.2034 -10069.3371 -8673.3914 242.2034 233.2972 305.7180 28726.8392 233.2972 305.7180
ENERGY: 900000 0.0000 0.0000 0.0000 0.0000 -11239.6013 1586.0657 0.0000 0.0000 1538.5561 -8114.9796 267.4393 -9653.5357 -8112.9327 269.6289 -65.7706 104.0459 29198.4220 1.2005 1.2498
TCL: Running 1000000 steps at 300 kelvin.
TCL: Setting parameter langevinTemp to 300
TCL: Running for 1000000 steps
ETITLE: TS BOND ANGLE DIHED IMPRP ELECT VDW BOUNDARY MISC KINETIC TOTAL TEMP POTENTIAL TOTAL3 TEMPAVG PRESSURE GPRESSURE VOLUME PRESSAVG GPRESSAVG
ENERGY: 900000 0.0000 0.0000 0.0000 0.0000 -11239.6013 1586.0657 0.0000 0.0000 1537.7565 -8115.7791 267.3003 -9653.5357 -8113.7718 267.3003 9.9193 103.4892 29198.4220 9.9193 103.4892
ENERGY: 1100000 0.0000 0.0000 0.0000 0.0000 -10557.7017 1359.0756 0.0000 0.0000 1732.5083 -7466.1177 301.1530 -9198.6260 -7462.3663 300.9622 -614.4212 -513.4875 30107.2069 2.5837 2.6347
ENERGY: 1300000 0.0000 0.0000 0.0000 0.0000 -10642.0219 1455.4979 0.0000 0.0000 1757.0637 -7429.4603 305.4213 -9186.5240 -7425.5431 300.6604 382.4072 482.4229 29639.7795 3.3573 3.1719
ENERGY: 1500000 0.0000 0.0000 0.0000 0.0000 -10719.8220 1497.0354 0.0000 0.0000 1734.8848 -7487.9017 301.5661 -9222.7865 -7481.2519 300.4957 75.3224 59.9967 30762.2438 4.0891 3.9485
ENERGY: 1700000 0.0000 0.0000 0.0000 0.0000 -10457.0701 1288.5032 0.0000 0.0000 1715.6195 -7452.9474 298.2173 -9168.5669 -7449.5171 300.0610 -1331.3883 -1235.3614 30597.9081 1.9931 2.1580
ENERGY: 1900000 0.0000 0.0000 0.0000 0.0000 -10708.9817 1441.1775 0.0000 0.0000 1680.4450 -7587.3592 292.1031 -9267.8042 -7584.2244 299.9716 -273.0612 -180.9605 30084.4356 3.5179 3.2010
TCL: Exiting due to exit command.
