Info: SIMULATION PARAMETERS:
Info: TIMESTEP               2
Info: NUMBER OF STEPS        0
Info: STEPS PER CYCLE        10
Info: PERIODIC CELL BASIS 1  37.133 0 0
Info: PERIODIC CELL BASIS 2  0 35.411 0
Info: PERIODIC CELL BASIS 3  0 0 33.27
Info: PERIODIC CELL CENTER   0 0 0
Info: WRAPPING WATERS AROUND PERIODIC BOUNDARIES ON OUTPUT.
Info: WRAPPING ALL CLUSTERS AROUND PERIODIC BOUNDARIES ON OUTPUT.
Info: FIRST LDB TIMESTEP     50
Info: LAST LDB TIMESTEP     -1
Info: HOM BACKGROUND SCALING 1
Info: PME BACKGROUND SCALING 1
Info: MIN ATOMS PER PATCH    40
Info: EMPTY PATCH LOAD       40 ATOMS
Info: INITIAL TEMPERATURE    300
Info: CENTER OF MASS MOVING INITIALLY? NO
Info: DIELECTRIC             1
Info: EXCLUDE                SCALED ONE-FOUR
Info: 1-4 ELECTROSTATICS SCALED BY 0.833333
Info: MODIFIED 1-4 VDW PARAMETERS WILL BE USED
Info: DCD FILENAME           mobley_8765203_equil.dcd
Info: DCD FREQUENCY          100000
Info: DCD FIRST STEP         100000
Info: DCD FILE WILL CONTAIN UNIT CELL DATA
Info: XST FILENAME           mobley_8765203_equil.xst
Info: XST FREQUENCY          100000
Info: NO VELOCITY DCD OUTPUT
Info: NO FORCE DCD OUTPUT
Info: OUTPUT FILENAME        mobley_8765203_equil
Info: BINARY OUTPUT FILES WILL BE USED
Info: RESTART FILENAME       mobley_8765203_equil.restart
Info: RESTART FREQUENCY      100000
Info: BINARY RESTART FILES WILL BE USED
Info: CUTOFF                 9
Info: PAIRLIST DISTANCE      11
Info: PAIRLIST SHRINK RATE   0.01
Info: PAIRLIST GROW RATE     0.01
Info: PAIRLIST TRIGGER       0.3
Info: PAIRLISTS PER CYCLE    2
Info: PAIRLISTS ENABLED
Info: MARGIN                 8
Info: HYDROGEN GROUP CUTOFF  2.5
Info: PATCH DIMENSION        21.5
Info: ENERGY OUTPUT STEPS    100000
Info: ENERGY EVALUATION STEPS    100000
Info: OUTPUT ENERGY PRECISION 4
Info: CROSSTERM ENERGY INCLUDED IN DIHEDRAL
Info: TIMING OUTPUT STEPS    1000000
Info: PRESSURE OUTPUT STEPS  100000
Info: FIXED ATOMS ACTIVE
Info: LANGEVIN DYNAMICS ACTIVE
Info: LANGEVIN TEMPERATURE   30
Info: LANGEVIN USING BBK INTEGRATOR
Info: LANGEVIN DAMPING COEFFICIENT IS 1 INVERSE PS
Info: LANGEVIN DYNAMICS APPLIED TO HYDROGENS
Info: LANGEVIN PISTON PRESSURE CONTROL ACTIVE
Info:        TARGET PRESSURE IS 1.01325 BAR
Info:     OSCILLATION PERIOD IS 50 FS
Info:             DECAY TIME IS 25 FS
Info:     PISTON TEMPERATURE IS 300 K
Info:       PRESSURE CONTROL IS GROUP-BASED
Info:    INITIAL STRAIN RATE IS 0 0 0
Info:       CELL FLUCTUATION IS ISOTROPIC
Info: PARTICLE MESH EWALD (PME) ACTIVE
Info: PME TOLERANCE               1e-06
Info: PME EWALD COEFFICIENT       0.348832
Info: PME INTERPOLATION ORDER     4
Info: PME GRID DIMENSIONS         40 36 36
Info: PME MAXIMUM GRID SPACING    1
Info: FULL ELECTROSTATIC EVALUATION FREQUENCY      2
Info: USING VERLET I (r-RESPA) MTS SCHEME.
Info: C1 SPLITTING OF LONG RANGE ELECTROSTATICS
Info: PLACING ATOMS IN PATCHES BY HYDROGEN GROUPS
Info: RIGID BONDS TO HYDROGEN : ALL
Info:         ERROR TOLERANCE : 1e-08
Info:          MAX ITERATIONS : 100
Info: RIGID WATER USING SETTLE ALGORITHM
Info: RANDOM NUMBER SEED     1743900998
Info: USE HYDROGEN BONDS?    NO
Info: Using AMBER format force field!
Info: AMBER PARM FILE        mobley_8765203.prmtop
Info: COORDINATE PDB         mobley_8765203.pdb
Info: Exclusions will be read from PARM file!
Info: SCNB (VDW SCALING)     2
Info: USING ARITHMETIC MEAN TO COMBINE L-J SIGMA PARAMETERS
Info: BINARY COORDINATES     mobley_8765203_min.coor
Info: SUMMARY OF PARAMETERS:
Info: 8 BONDS
Info: 9 ANGLES
Info:   9 HARMONIC
Info:   0 COSINE-BASED
Info: 5 DIHEDRAL
Info: 0 IMPROPER
Info: 0 CROSSTERM
Info: 0 VDW
Info: 21 VDW_PAIRS
Info: 0 NBTHOLE_PAIRS
Info: STRUCTURE SUMMARY:
Info: 2935 ATOMS
Info: 2934 BONDS
Info: 18 ANGLES
Info: 28 DIHEDRALS
Info: 0 IMPROPERS
Info: 0 CROSSTERMS
Info: 2970 EXCLUSIONS
Info: 13 FIXED ATOMS
Info: 2930 RIGID BONDS
Info: 8 RIGID BONDS BETWEEN FIXED ATOMS
Info: 5844 DEGREES OF FREEDOM
Info: 979 HYDROGEN GROUPS
Info: 4 ATOMS IN LARGEST HYDROGEN GROUP
Info: 979 MIGRATION GROUPS
Info: 4 ATOMS IN LARGEST MIGRATION GROUP
Info: 5 HYDROGEN GROUPS WITH ALL ATOMS FIXED
Info: TOTAL MASS = 17615.7 amu
Info: TOTAL CHARGE = 0.000200022 e
Info: MASS DENSITY = 0.668664 g/cm^3
Info: ATOM DENSITY = 0.0670899 atoms/A^3
Info: ADDED 0 IMPLICIT EXCLUSIONS
Info: NONBONDED TABLE R-SQUARED SPACING: 0.0625
Info: NONBONDED TABLE SIZE: 705 POINTS
Info: REMOVING COM VELOCITY 0.133523 0.0958282 -0.10115
TCL: Running for 100000 steps
ETITLE: TS BOND ANGLE DIHED IMPRP ELECT VDW BOUNDARY MISC KINETIC TOTAL TEMP POTENTIAL TOTAL3 TEMPAVG PRESSURE GPRESSURE VOLUME PRESSAVG GPRESSAVG
ENERGY: 0 0.0000 0.0000 0.0000 0.0000 -13585.0966 2373.9803 0.0000 0.0000 1689.6826 -9521.4337 290.9949 -11211.1163 -9521.1216 290.9949 274.5788 309.5643 43747.2774 274.5788 309.5643
ENERGY: 100000 0.0000 0.0000 0.0000 0.0000 -14241.2032 2518.0986 0.0000 0.0000 172.2276 -11550.8769 29.6608 -11723.1045 -11550.5841 30.9214 451.8915 532.6986 28409.2176 3.8968 3.8905
TCL: Running 100000 steps at 60 kelvin.
TCL: Setting parameter langevinTemp to 60
TCL: Running for 100000 steps
ETITLE: TS BOND ANGLE DIHED IMPRP ELECT VDW BOUNDARY MISC KINETIC TOTAL TEMP POTENTIAL TOTAL3 TEMPAVG PRESSURE GPRESSURE VOLUME PRESSAVG GPRESSAVG
ENERGY: 100000 0.0000 0.0000 0.0000 0.0000 -14241.2032 2518.0986 0.0000 0.0000 172.1402 -11550.9643 29.6458 -11723.1045 -11550.6228 29.6458 473.8735 532.4193 28409.2176 473.8735 532.4193
ENERGY: 200000 0.0000 0.0000 0.0000 0.0000 -14099.2854 2465.2044 0.0000 0.0000 337.1655 -11296.9155 58.0662 -11634.0810 -11296.3897 59.9922 517.8907 557.1419 28229.4280 3.9488 3.9947
TCL: Running 100000 steps at 90 kelvin.
TCL: Setting parameter langevinTemp to 90
TCL: Running for 100000 steps
ETITLE: TS BOND ANGLE DIHED IMPRP ELECT VDW BOUNDARY MISC KINETIC TOTAL TEMP POTENTIAL TOTAL3 TEMPAVG PRESSURE GPRESSURE VOLUME PRESSAVG GPRESSAVG
ENERGY: 200000 0.0000 0.0000 0.0000 0.0000 -14099.2854 2465.2044 0.0000 0.0000 336.9880 -11297.0930 58.0356 -11634.0810 -11296.6129 58.0356 503.0392 557.2667 28229.4280 503.0392 557.2667
ENERGY: 300000 0.0000 0.0000 0.0000 0.0000 -13816.5521 2260.0594 0.0000 0.0000 535.2713 -11021.2214 92.1837 -11556.4927 -11019.7998 90.2764 -821.4080 -782.3679 28136.3608 2.7459 2.8036
TCL: Running 100000 steps at 120 kelvin.
TCL: Setting parameter langevinTemp to 120
TCL: Running for 100000 steps
ETITLE: TS BOND ANGLE DIHED IMPRP ELECT VDW BOUNDARY MISC KINETIC TOTAL TEMP POTENTIAL TOTAL3 TEMPAVG PRESSURE GPRESSURE VOLUME PRESSAVG GPRESSAVG
ENERGY: 300000 0.0000 0.0000 0.0000 0.0000 -13816.5521 2260.0594 0.0000 0.0000 535.0102 -11021.4825 92.1387 -11556.4927 -11020.4348 92.1387 -830.1036 -782.1044 28136.3608 -830.1036 -782.1044
ENERGY: 400000 0.0000 0.0000 0.0000 0.0000 -13804.5622 2374.2531 0.0000 0.0000 684.4781 -10745.8311 117.8799 -11430.3091 -10743.6528 120.0481 530.7946 579.9977 28221.2722 3.4244 3.4334
TCL: Running 100000 steps at 150 kelvin.
TCL: Setting parameter langevinTemp to 150
TCL: Running for 100000 steps
ETITLE: TS BOND ANGLE DIHED IMPRP ELECT VDW BOUNDARY MISC KINETIC TOTAL TEMP POTENTIAL TOTAL3 TEMPAVG PRESSURE GPRESSURE VOLUME PRESSAVG GPRESSAVG
ENERGY: 400000 0.0000 0.0000 0.0000 0.0000 -13804.5622 2374.2531 0.0000 0.0000 684.1186 -10746.1905 117.8180 -11430.3091 -10744.8771 117.8180 529.9842 580.9124 28221.2722 529.9842 580.9124
ENERGY: 500000 0.0000 0.0000 0.0000 0.0000 -13624.0005 2366.8218 0.0000 0.0000 859.8264 -10397.3523 148.0781 -11257.1787 -10395.0420 149.8009 1226.6903 1277.0762 28248.2942 4.8891 5.0378
TCL: Running 100000 steps at 180 kelvin.
TCL: Setting parameter langevinTemp to 180
TCL: Running for 100000 steps
ETITLE: TS BOND ANGLE DIHED IMPRP ELECT VDW BOUNDARY MISC KINETIC TOTAL TEMP POTENTIAL TOTAL3 TEMPAVG PRESSURE GPRESSURE VOLUME PRESSAVG GPRESSAVG
ENERGY: 500000 0.0000 0.0000 0.0000 0.0000 -13624.0005 2366.8218 0.0000 0.0000 859.4161 -10397.7626 148.0075 -11257.1787 -10396.2062 148.0075 1237.9939 1278.0143 28248.2942 1237.9939 1278.0143
ENERGY: 600000 0.0000 0.0000 0.0000 0.0000 -13020.7138 2052.1505 0.0000 0.0000 1060.7213 -9907.8420 182.6760 -10968.5633 -9903.8419 179.9655 -606.4501 -531.7041 28886.8568 3.4792 3.4189
TCL: Running 100000 steps at 210 kelvin.
TCL: Setting parameter langevinTemp to 210
TCL: Running for 100000 steps
ETITLE: TS BOND ANGLE DIHED IMPRP ELECT VDW BOUNDARY MISC KINETIC TOTAL TEMP POTENTIAL TOTAL3 TEMPAVG PRESSURE GPRESSURE VOLUME PRESSAVG GPRESSAVG
ENERGY: 600000 0.0000 0.0000 0.0000 0.0000 -13020.7138 2052.1505 0.0000 0.0000 1060.2284 -9908.3349 182.5911 -10968.5633 -9906.2567 182.5911 -584.7435 -530.5642 28886.8568 -584.7435 -530.5642
ENERGY: 700000 0.0000 0.0000 0.0000 0.0000 -12378.2694 1889.4065 0.0000 0.0000 1241.2620 -9247.6008 213.7685 -10488.8628 -9243.9736 210.4278 139.0067 223.1969 28423.7675 3.9354 3.9926
TCL: Running 100000 steps at 240 kelvin.
TCL: Setting parameter langevinTemp to 240
TCL: Running for 100000 steps
ETITLE: TS BOND ANGLE DIHED IMPRP ELECT VDW BOUNDARY MISC KINETIC TOTAL TEMP POTENTIAL TOTAL3 TEMPAVG PRESSURE GPRESSURE VOLUME PRESSAVG GPRESSAVG
ENERGY: 700000 0.0000 0.0000 0.0000 0.0000 -12378.2694 1889.4065 0.0000 0.0000 1240.6717 -9248.1912 213.6668 -10488.8628 -9246.1275 213.6668 152.0096 225.1006 28423.7675 152.0096 225.1006
ENERGY: 800000 0.0000 0.0000 0.0000 0.0000 -11683.9066 1637.6555 0.0000 0.0000 1422.6515 -8623.5996 245.0071 -10046.2511 -8622.4699 239.9592 -668.4029 -519.6307 28908.8644 2.3606 2.2384
TCL: Running 100000 steps at 270 kelvin.
TCL: Setting parameter langevinTemp to 270
TCL: Running for 100000 steps
ETITLE: TS BOND ANGLE DIHED IMPRP ELECT VDW BOUNDARY MISC KINETIC TOTAL TEMP POTENTIAL TOTAL3 TEMPAVG PRESSURE GPRESSURE VOLUME PRESSAVG GPRESSAVG
ENERGY: 800000 0.0000 0.0000 0.0000 0.0000 -11683.9066 1637.6555 0.0000 0.0000 1421.9639 -8624.2872 244.8887 -10046.2511 -8621.7188 244.8887 -606.2064 -521.7385 28908.8644 -606.2064 -521.7385
ENERGY: 900000 0.0000 0.0000 0.0000 0.0000 -11121.2302 1484.3478 0.0000 0.0000 1532.8765 -8104.0060 263.9899 -9636.8825 -8100.4642 270.3030 -782.4850 -648.7837 29588.9270 4.1353 4.2101
TCL: Running 1000000 steps at 300 kelvin.
TCL: Setting parameter langevinTemp to 300
TCL: Running for 1000000 steps
ETITLE: TS BOND ANGLE DIHED IMPRP ELECT VDW BOUNDARY MISC KINETIC TOTAL TEMP POTENTIAL TOTAL3 TEMPAVG PRESSURE GPRESSURE VOLUME PRESSAVG GPRESSAVG
ENERGY: 900000 0.0000 0.0000 0.0000 0.0000 -11121.2302 1484.3478 0.0000 0.0000 1532.0758 -8104.8067 263.8520 -9636.8825 -8102.8535 263.8520 -734.8750 -648.4938 29588.9270 -734.8750 -648.4938
ENERGY: 1100000 0.0000 0.0000 0.0000 0.0000 -10744.9550 1444.9875 0.0000 0.0000 1701.0383 -7598.9292 292.9505 -9299.9675 -7594.1678 299.6228 127.7365 157.6574 29852.2265 3.8800 3.7831
ENERGY: 1300000 0.0000 0.0000 0.0000 0.0000 -10623.8622 1392.9163 0.0000 0.0000 1705.5131 -7525.4327 293.7212 -9230.9459 -7522.8616 300.2912 -434.7383 -310.7761 30353.2403 3.1550 3.0430
ENERGY: 1500000 0.0000 0.0000 0.0000 0.0000 -10666.8249 1409.9602 0.0000 0.0000 1743.6296 -7513.2351 300.2855 -9256.8647 -7508.7360 300.1614 -341.1287 -253.6369 30388.5460 2.4051 2.3324
ENERGY: 1700000 0.0000 0.0000 0.0000 0.0000 -10685.1394 1432.5859 0.0000 0.0000 1760.1097 -7492.4437 303.1237 -9252.5535 -7491.1615 300.0779 -45.7047 70.6890 29942.4143 3.6054 3.6916
ENERGY: 1900000 0.0000 0.0000 0.0000 0.0000 -10691.5086 1451.9292 0.0000 0.0000 1742.4227 -7497.1567 300.0777 -9239.5794 -7493.4928 299.7418 -25.8352 69.0071 30535.6377 3.5145 3.4529
TCL: Exiting due to exit command.
