Info: SIMULATION PARAMETERS:
Info: TIMESTEP               2
Info: NUMBER OF STEPS        0
Info: STEPS PER CYCLE        10
Info: PERIODIC CELL BASIS 1  37.435 0 0
Info: PERIODIC CELL BASIS 2  0 36.032 0
Info: PERIODIC CELL BASIS 3  0 0 31.855
Info: PERIODIC CELL CENTER   0 0 0
Info: WRAPPING WATERS AROUND PERIODIC BOUNDARIES ON OUTPUT.
Info: WRAPPING ALL CLUSTERS AROUND PERIODIC BOUNDARIES ON OUTPUT.
Info: FIRST LDB TIMESTEP     50
Info: LAST LDB TIMESTEP     -1
Info: HOM BACKGROUND SCALING 1
Info: PME BACKGROUND SCALING 1
Info: MIN ATOMS PER PATCH    40
Info: EMPTY PATCH LOAD       40 ATOMS
Info: INITIAL TEMPERATURE    300
Info: CENTER OF MASS MOVING INITIALLY? NO
Info: DIELECTRIC             1
Info: EXCLUDE                SCALED ONE-FOUR
Info: 1-4 ELECTROSTATICS SCALED BY 0.833333
Info: MODIFIED 1-4 VDW PARAMETERS WILL BE USED
Info: DCD FILENAME           mobley_1178614_equil.dcd
Info: DCD FREQUENCY          100000
Info: DCD FIRST STEP         100000
Info: DCD FILE WILL CONTAIN UNIT CELL DATA
Info: XST FILENAME           mobley_1178614_equil.xst
Info: XST FREQUENCY          100000
Info: NO VELOCITY DCD OUTPUT
Info: NO FORCE DCD OUTPUT
Info: OUTPUT FILENAME        mobley_1178614_equil
Info: BINARY OUTPUT FILES WILL BE USED
Info: RESTART FILENAME       mobley_1178614_equil.restart
Info: RESTART FREQUENCY      100000
Info: BINARY RESTART FILES WILL BE USED
Info: CUTOFF                 9
Info: PAIRLIST DISTANCE      11
Info: PAIRLIST SHRINK RATE   0.01
Info: PAIRLIST GROW RATE     0.01
Info: PAIRLIST TRIGGER       0.3
Info: PAIRLISTS PER CYCLE    2
Info: PAIRLISTS ENABLED
Info: MARGIN                 8
Info: HYDROGEN GROUP CUTOFF  2.5
Info: PATCH DIMENSION        21.5
Info: ENERGY OUTPUT STEPS    100000
Info: ENERGY EVALUATION STEPS    100000
Info: OUTPUT ENERGY PRECISION 4
Info: CROSSTERM ENERGY INCLUDED IN DIHEDRAL
Info: TIMING OUTPUT STEPS    1000000
Info: PRESSURE OUTPUT STEPS  100000
Info: FIXED ATOMS ACTIVE
Info: LANGEVIN DYNAMICS ACTIVE
Info: LANGEVIN TEMPERATURE   30
Info: LANGEVIN USING BBK INTEGRATOR
Info: LANGEVIN DAMPING COEFFICIENT IS 1 INVERSE PS
Info: LANGEVIN DYNAMICS APPLIED TO HYDROGENS
Info: LANGEVIN PISTON PRESSURE CONTROL ACTIVE
Info:        TARGET PRESSURE IS 1.01325 BAR
Info:     OSCILLATION PERIOD IS 50 FS
Info:             DECAY TIME IS 25 FS
Info:     PISTON TEMPERATURE IS 300 K
Info:       PRESSURE CONTROL IS GROUP-BASED
Info:    INITIAL STRAIN RATE IS 0 0 0
Info:       CELL FLUCTUATION IS ISOTROPIC
Info: PARTICLE MESH EWALD (PME) ACTIVE
Info: PME TOLERANCE               1e-06
Info: PME EWALD COEFFICIENT       0.348832
Info: PME INTERPOLATION ORDER     4
Info: PME GRID DIMENSIONS         40 40 32
Info: PME MAXIMUM GRID SPACING    1
Info: FULL ELECTROSTATIC EVALUATION FREQUENCY      2
Info: USING VERLET I (r-RESPA) MTS SCHEME.
Info: C1 SPLITTING OF LONG RANGE ELECTROSTATICS
Info: PLACING ATOMS IN PATCHES BY HYDROGEN GROUPS
Info: RIGID BONDS TO HYDROGEN : ALL
Info:         ERROR TOLERANCE : 1e-08
Info:          MAX ITERATIONS : 100
Info: RIGID WATER USING SETTLE ALGORITHM
Info: RANDOM NUMBER SEED     1743728862
Info: USE HYDROGEN BONDS?    NO
Info: Using AMBER format force field!
Info: AMBER PARM FILE        mobley_1178614.prmtop
Info: COORDINATE PDB         mobley_1178614.pdb
Info: Exclusions will be read from PARM file!
Info: SCNB (VDW SCALING)     2
Info: USING ARITHMETIC MEAN TO COMBINE L-J SIGMA PARAMETERS
Info: BINARY COORDINATES     mobley_1178614_min.coor
Info: SUMMARY OF PARAMETERS:
Info: 7 BONDS
Info: 5 ANGLES
Info:   5 HARMONIC
Info:   0 COSINE-BASED
Info: 3 DIHEDRAL
Info: 0 IMPROPER
Info: 0 CROSSTERM
Info: 0 VDW
Info: 21 VDW_PAIRS
Info: 0 NBTHOLE_PAIRS
Info: STRUCTURE SUMMARY:
Info: 2944 ATOMS
Info: 2944 BONDS
Info: 19 ANGLES
Info: 32 DIHEDRALS
Info: 0 IMPROPERS
Info: 0 CROSSTERMS
Info: 2986 EXCLUSIONS
Info: 13 FIXED ATOMS
Info: 2936 RIGID BONDS
Info: 5 RIGID BONDS BETWEEN FIXED ATOMS
Info: 5862 DEGREES OF FREEDOM
Info: 985 HYDROGEN GROUPS
Info: 3 ATOMS IN LARGEST HYDROGEN GROUP
Info: 985 MIGRATION GROUPS
Info: 3 ATOMS IN LARGEST MIGRATION GROUP
Info: 8 HYDROGEN GROUPS WITH ALL ATOMS FIXED
Info: TOTAL MASS = 17730.2 amu
Info: TOTAL CHARGE = 0.000199974 e
Info: MASS DENSITY = 0.685218 g/cm^3
Info: ATOM DENSITY = 0.0685163 atoms/A^3
Info: ADDED 0 IMPLICIT EXCLUSIONS
Info: NONBONDED TABLE R-SQUARED SPACING: 0.0625
Info: NONBONDED TABLE SIZE: 705 POINTS
Info: REMOVING COM VELOCITY 0.0656265 0.0888239 0.218087
TCL: Running for 100000 steps
ETITLE: TS BOND ANGLE DIHED IMPRP ELECT VDW BOUNDARY MISC KINETIC TOTAL TEMP POTENTIAL TOTAL3 TEMPAVG PRESSURE GPRESSURE VOLUME PRESSAVG GPRESSAVG
ENERGY: 0 0.0000 0.0000 0.0000 0.0000 -13645.3201 2372.8795 0.0000 0.0000 1733.0820 -9539.3587 297.5525 -11272.4406 -9539.0371 297.5525 308.5152 346.6058 42967.8690 308.5152 346.6058
ENERGY: 100000 0.0000 0.0000 0.0000 0.0000 -14250.7425 2468.3975 0.0000 0.0000 174.7459 -11607.5991 30.0021 -11782.3451 -11606.9231 30.9057 126.1659 201.4892 28387.2807 3.2861 3.3472
TCL: Running 100000 steps at 60 kelvin.
TCL: Setting parameter langevinTemp to 60
TCL: Running for 100000 steps
ETITLE: TS BOND ANGLE DIHED IMPRP ELECT VDW BOUNDARY MISC KINETIC TOTAL TEMP POTENTIAL TOTAL3 TEMPAVG PRESSURE GPRESSURE VOLUME PRESSAVG GPRESSAVG
ENERGY: 100000 0.0000 0.0000 0.0000 0.0000 -14250.7425 2468.3975 0.0000 0.0000 174.6570 -11607.6881 29.9868 -11782.3451 -11607.3425 29.9868 132.7456 201.7386 28387.2807 132.7456 201.7386
ENERGY: 200000 0.0000 0.0000 0.0000 0.0000 -14106.4177 2373.5038 0.0000 0.0000 343.3738 -11389.5401 58.9538 -11732.9139 -11388.3352 59.8868 -556.5112 -500.1102 28485.4207 4.3825 4.3998
TCL: Running 100000 steps at 90 kelvin.
TCL: Setting parameter langevinTemp to 90
TCL: Running for 100000 steps
ETITLE: TS BOND ANGLE DIHED IMPRP ELECT VDW BOUNDARY MISC KINETIC TOTAL TEMP POTENTIAL TOTAL3 TEMPAVG PRESSURE GPRESSURE VOLUME PRESSAVG GPRESSAVG
ENERGY: 200000 0.0000 0.0000 0.0000 0.0000 -14106.4177 2373.5038 0.0000 0.0000 343.2013 -11389.7126 58.9242 -11732.9139 -11388.9194 58.9242 -552.2682 -499.4023 28485.4207 -552.2682 -499.4023
ENERGY: 300000 0.0000 0.0000 0.0000 0.0000 -14050.5321 2428.9763 0.0000 0.0000 524.4498 -11097.1060 90.0427 -11621.5557 -11095.6560 90.0132 561.1373 623.0364 27991.5247 4.5497 4.5497
TCL: Running 100000 steps at 120 kelvin.
TCL: Setting parameter langevinTemp to 120
TCL: Running for 100000 steps
ETITLE: TS BOND ANGLE DIHED IMPRP ELECT VDW BOUNDARY MISC KINETIC TOTAL TEMP POTENTIAL TOTAL3 TEMPAVG PRESSURE GPRESSURE VOLUME PRESSAVG GPRESSAVG
ENERGY: 300000 0.0000 0.0000 0.0000 0.0000 -14050.5321 2428.9763 0.0000 0.0000 524.1836 -11097.3722 89.9970 -11621.5557 -11096.3685 89.9970 584.7382 623.5262 27991.5247 584.7382 623.5262
ENERGY: 400000 0.0000 0.0000 0.0000 0.0000 -13929.5227 2436.9950 0.0000 0.0000 669.1490 -10823.3787 114.8861 -11492.5277 -10820.9373 119.6082 894.6761 951.7933 28442.4554 4.4850 4.4261
TCL: Running 100000 steps at 150 kelvin.
TCL: Setting parameter langevinTemp to 150
TCL: Running for 100000 steps
ETITLE: TS BOND ANGLE DIHED IMPRP ELECT VDW BOUNDARY MISC KINETIC TOTAL TEMP POTENTIAL TOTAL3 TEMPAVG PRESSURE GPRESSURE VOLUME PRESSAVG GPRESSAVG
ENERGY: 400000 0.0000 0.0000 0.0000 0.0000 -13929.5227 2436.9950 0.0000 0.0000 668.7941 -10823.7336 114.8251 -11492.5277 -10822.7461 114.8251 918.7372 953.1619 28442.4554 918.7372 953.1619
ENERGY: 500000 0.0000 0.0000 0.0000 0.0000 -13451.6057 2186.5188 0.0000 0.0000 881.7111 -10383.3759 151.3808 -11265.0870 -10380.8171 149.7752 -432.5033 -374.4704 28855.5744 3.5007 3.4596
TCL: Running 100000 steps at 180 kelvin.
TCL: Setting parameter langevinTemp to 180
TCL: Running for 100000 steps
ETITLE: TS BOND ANGLE DIHED IMPRP ELECT VDW BOUNDARY MISC KINETIC TOTAL TEMP POTENTIAL TOTAL3 TEMPAVG PRESSURE GPRESSURE VOLUME PRESSAVG GPRESSAVG
ENERGY: 500000 0.0000 0.0000 0.0000 0.0000 -13451.6057 2186.5188 0.0000 0.0000 881.2701 -10383.8169 151.3051 -11265.0870 -10381.8474 151.3051 -435.0246 -374.7916 28855.5744 -435.0246 -374.7916
ENERGY: 600000 0.0000 0.0000 0.0000 0.0000 -13159.3910 2149.1449 0.0000 0.0000 1075.6388 -9934.6073 184.6762 -11010.2461 -9931.6178 179.8492 681.5630 662.9507 28461.0947 3.3740 3.3543
TCL: Running 100000 steps at 210 kelvin.
TCL: Setting parameter langevinTemp to 210
TCL: Running for 100000 steps
ETITLE: TS BOND ANGLE DIHED IMPRP ELECT VDW BOUNDARY MISC KINETIC TOTAL TEMP POTENTIAL TOTAL3 TEMPAVG PRESSURE GPRESSURE VOLUME PRESSAVG GPRESSAVG
ENERGY: 600000 0.0000 0.0000 0.0000 0.0000 -13159.3910 2149.1449 0.0000 0.0000 1075.1334 -9935.1127 184.5895 -11010.2461 -9933.2144 184.5895 597.2449 664.1065 28461.0947 597.2449 664.1065
ENERGY: 700000 0.0000 0.0000 0.0000 0.0000 -12550.3073 1950.0538 0.0000 0.0000 1274.1532 -9326.1003 218.7592 -10600.2536 -9322.6352 209.8168 411.0236 526.2180 28315.9180 2.8058 3.0017
TCL: Running 100000 steps at 240 kelvin.
TCL: Setting parameter langevinTemp to 240
TCL: Running for 100000 steps
ETITLE: TS BOND ANGLE DIHED IMPRP ELECT VDW BOUNDARY MISC KINETIC TOTAL TEMP POTENTIAL TOTAL3 TEMPAVG PRESSURE GPRESSURE VOLUME PRESSAVG GPRESSAVG
ENERGY: 700000 0.0000 0.0000 0.0000 0.0000 -12550.3073 1950.0538 0.0000 0.0000 1273.5668 -9326.6868 218.6585 -10600.2536 -9324.5454 218.6585 458.8342 527.2638 28315.9180 458.8342 527.2638
ENERGY: 800000 0.0000 0.0000 0.0000 0.0000 -11883.6641 1733.5295 0.0000 0.0000 1421.7923 -8728.3423 244.1073 -10150.1346 -8725.1537 239.5067 -89.5872 57.3274 29055.9741 3.5180 3.3690
TCL: Running 100000 steps at 270 kelvin.
TCL: Setting parameter langevinTemp to 270
TCL: Running for 100000 steps
ETITLE: TS BOND ANGLE DIHED IMPRP ELECT VDW BOUNDARY MISC KINETIC TOTAL TEMP POTENTIAL TOTAL3 TEMPAVG PRESSURE GPRESSURE VOLUME PRESSAVG GPRESSAVG
ENERGY: 800000 0.0000 0.0000 0.0000 0.0000 -11883.6641 1733.5295 0.0000 0.0000 1421.1021 -8729.0325 243.9888 -10150.1346 -8726.2815 243.9888 -31.7154 57.3450 29055.9741 -31.7154 57.3450
ENERGY: 900000 0.0000 0.0000 0.0000 0.0000 -11335.0622 1552.3935 0.0000 0.0000 1579.1546 -8203.5141 271.1248 -9782.6688 -8199.6810 269.9100 -292.8941 -233.9196 29431.1565 2.7643 2.5369
TCL: Running 1000000 steps at 300 kelvin.
TCL: Setting parameter langevinTemp to 300
TCL: Running for 1000000 steps
ETITLE: TS BOND ANGLE DIHED IMPRP ELECT VDW BOUNDARY MISC KINETIC TOTAL TEMP POTENTIAL TOTAL3 TEMPAVG PRESSURE GPRESSURE VOLUME PRESSAVG GPRESSAVG
ENERGY: 900000 0.0000 0.0000 0.0000 0.0000 -11335.0622 1552.3935 0.0000 0.0000 1578.3842 -8204.2846 270.9925 -9782.6688 -8201.3758 270.9925 -324.3110 -232.3642 29431.1565 -324.3110 -232.3642
ENERGY: 1100000 0.0000 0.0000 0.0000 0.0000 -10697.7277 1434.3133 0.0000 0.0000 1682.4289 -7580.9854 288.8559 -9263.4143 -7576.7831 300.1901 -103.8612 76.5750 30314.3436 2.3467 2.4027
ENERGY: 1300000 0.0000 0.0000 0.0000 0.0000 -10526.9310 1313.0426 0.0000 0.0000 1738.7224 -7475.1660 298.5210 -9213.8884 -7473.5466 300.4676 -963.4086 -858.7199 30754.3954 3.2601 3.1040
ENERGY: 1500000 0.0000 0.0000 0.0000 0.0000 -10726.4209 1417.8182 0.0000 0.0000 1766.0862 -7542.5165 303.2190 -9308.6027 -7540.1171 300.4981 -227.0652 -153.8091 30338.8279 3.9543 3.6375
ENERGY: 1700000 0.0000 0.0000 0.0000 0.0000 -10840.4769 1517.4835 0.0000 0.0000 1810.2683 -7512.7251 310.8046 -9322.9934 -7509.7746 300.3148 485.2696 601.0666 30528.5796 3.3562 3.4151
ENERGY: 1900000 0.0000 0.0000 0.0000 0.0000 -10789.7501 1462.8387 0.0000 0.0000 1788.8911 -7538.0203 307.1344 -9326.9114 -7534.3677 300.6172 208.0608 285.6396 30180.6408 4.4322 4.4081
TCL: Exiting due to exit command.
