Info: SIMULATION PARAMETERS:
Info: TIMESTEP               2
Info: NUMBER OF STEPS        0
Info: STEPS PER CYCLE        10
Info: PERIODIC CELL BASIS 1  37.38 0 0
Info: PERIODIC CELL BASIS 2  0 35.411 0
Info: PERIODIC CELL BASIS 3  0 0 33.876
Info: PERIODIC CELL CENTER   0 0 0
Info: WRAPPING WATERS AROUND PERIODIC BOUNDARIES ON OUTPUT.
Info: WRAPPING ALL CLUSTERS AROUND PERIODIC BOUNDARIES ON OUTPUT.
Info: FIRST LDB TIMESTEP     50
Info: LAST LDB TIMESTEP     -1
Info: HOM BACKGROUND SCALING 1
Info: PME BACKGROUND SCALING 1
Info: MIN ATOMS PER PATCH    40
Info: EMPTY PATCH LOAD       40 ATOMS
Info: INITIAL TEMPERATURE    300
Info: CENTER OF MASS MOVING INITIALLY? NO
Info: DIELECTRIC             1
Info: EXCLUDE                SCALED ONE-FOUR
Info: 1-4 ELECTROSTATICS SCALED BY 0.833333
Info: MODIFIED 1-4 VDW PARAMETERS WILL BE USED
Info: DCD FILENAME           mobley_3105103_equil.dcd
Info: DCD FREQUENCY          100000
Info: DCD FIRST STEP         100000
Info: DCD FILE WILL CONTAIN UNIT CELL DATA
Info: XST FILENAME           mobley_3105103_equil.xst
Info: XST FREQUENCY          100000
Info: NO VELOCITY DCD OUTPUT
Info: NO FORCE DCD OUTPUT
Info: OUTPUT FILENAME        mobley_3105103_equil
Info: BINARY OUTPUT FILES WILL BE USED
Info: RESTART FILENAME       mobley_3105103_equil.restart
Info: RESTART FREQUENCY      100000
Info: BINARY RESTART FILES WILL BE USED
Info: CUTOFF                 9
Info: PAIRLIST DISTANCE      11
Info: PAIRLIST SHRINK RATE   0.01
Info: PAIRLIST GROW RATE     0.01
Info: PAIRLIST TRIGGER       0.3
Info: PAIRLISTS PER CYCLE    2
Info: PAIRLISTS ENABLED
Info: MARGIN                 8
Info: HYDROGEN GROUP CUTOFF  2.5
Info: PATCH DIMENSION        21.5
Info: ENERGY OUTPUT STEPS    100000
Info: ENERGY EVALUATION STEPS    100000
Info: OUTPUT ENERGY PRECISION 4
Info: CROSSTERM ENERGY INCLUDED IN DIHEDRAL
Info: TIMING OUTPUT STEPS    1000000
Info: PRESSURE OUTPUT STEPS  100000
Info: FIXED ATOMS ACTIVE
Info: LANGEVIN DYNAMICS ACTIVE
Info: LANGEVIN TEMPERATURE   30
Info: LANGEVIN USING BBK INTEGRATOR
Info: LANGEVIN DAMPING COEFFICIENT IS 1 INVERSE PS
Info: LANGEVIN DYNAMICS APPLIED TO HYDROGENS
Info: LANGEVIN PISTON PRESSURE CONTROL ACTIVE
Info:        TARGET PRESSURE IS 1.01325 BAR
Info:     OSCILLATION PERIOD IS 50 FS
Info:             DECAY TIME IS 25 FS
Info:     PISTON TEMPERATURE IS 300 K
Info:       PRESSURE CONTROL IS GROUP-BASED
Info:    INITIAL STRAIN RATE IS 0 0 0
Info:       CELL FLUCTUATION IS ISOTROPIC
Info: PARTICLE MESH EWALD (PME) ACTIVE
Info: PME TOLERANCE               1e-06
Info: PME EWALD COEFFICIENT       0.348832
Info: PME INTERPOLATION ORDER     4
Info: PME GRID DIMENSIONS         40 36 36
Info: PME MAXIMUM GRID SPACING    1
Info: FULL ELECTROSTATIC EVALUATION FREQUENCY      2
Info: USING VERLET I (r-RESPA) MTS SCHEME.
Info: C1 SPLITTING OF LONG RANGE ELECTROSTATICS
Info: PLACING ATOMS IN PATCHES BY HYDROGEN GROUPS
Info: RIGID BONDS TO HYDROGEN : ALL
Info:         ERROR TOLERANCE : 1e-08
Info:          MAX ITERATIONS : 100
Info: RIGID WATER USING SETTLE ALGORITHM
Info: RANDOM NUMBER SEED     1744720726
Info: USE HYDROGEN BONDS?    NO
Info: Using AMBER format force field!
Info: AMBER PARM FILE        mobley_3105103.prmtop
Info: COORDINATE PDB         mobley_3105103.pdb
Info: Exclusions will be read from PARM file!
Info: SCNB (VDW SCALING)     2
Info: USING ARITHMETIC MEAN TO COMBINE L-J SIGMA PARAMETERS
Info: BINARY COORDINATES     mobley_3105103_min.coor
Info: SUMMARY OF PARAMETERS:
Info: 13 BONDS
Info: 20 ANGLES
Info:   20 HARMONIC
Info:   0 COSINE-BASED
Info: 14 DIHEDRAL
Info: 0 IMPROPER
Info: 0 CROSSTERM
Info: 0 VDW
Info: 45 VDW_PAIRS
Info: 0 NBTHOLE_PAIRS
Info: STRUCTURE SUMMARY:
Info: 2940 ATOMS
Info: 2940 BONDS
Info: 48 ANGLES
Info: 88 DIHEDRALS
Info: 0 IMPROPERS
Info: 0 CROSSTERMS
Info: 3048 EXCLUSIONS
Info: 27 FIXED ATOMS
Info: 2926 RIGID BONDS
Info: 13 RIGID BONDS BETWEEN FIXED ATOMS
Info: 5826 DEGREES OF FREEDOM
Info: 985 HYDROGEN GROUPS
Info: 4 ATOMS IN LARGEST HYDROGEN GROUP
Info: 985 MIGRATION GROUPS
Info: 4 ATOMS IN LARGEST MIGRATION GROUP
Info: 14 HYDROGEN GROUPS WITH ALL ATOMS FIXED
Info: TOTAL MASS = 17710.2 amu
Info: TOTAL CHARGE = 2.6077e-08 e
Info: MASS DENSITY = 0.655863 g/cm^3
Info: ATOM DENSITY = 0.0655659 atoms/A^3
Info: ADDED 0 IMPLICIT EXCLUSIONS
Info: NONBONDED TABLE R-SQUARED SPACING: 0.0625
Info: NONBONDED TABLE SIZE: 705 POINTS
Info: REMOVING COM VELOCITY -0.123108 -0.0912972 0.100727
TCL: Running for 100000 steps
ETITLE: TS BOND ANGLE DIHED IMPRP ELECT VDW BOUNDARY MISC KINETIC TOTAL TEMP POTENTIAL TOTAL3 TEMPAVG PRESSURE GPRESSURE VOLUME PRESSAVG GPRESSAVG
ENERGY: 0 0.0000 0.0000 0.0000 0.0000 -13680.7053 2388.0078 0.0000 0.0000 1750.4169 -9542.2805 302.3858 -11292.6974 -9541.9172 302.3858 406.4673 444.4815 44840.4139 406.4673 444.4815
ENERGY: 100000 0.0000 0.0000 0.0000 0.0000 -14235.8330 2410.7775 0.0000 0.0000 172.3681 -11652.6873 29.7767 -11825.0555 -11652.2026 30.8547 -302.1143 -261.4039 28824.9107 4.6356 4.6180
TCL: Running 100000 steps at 60 kelvin.
TCL: Setting parameter langevinTemp to 60
TCL: Running for 100000 steps
ETITLE: TS BOND ANGLE DIHED IMPRP ELECT VDW BOUNDARY MISC KINETIC TOTAL TEMP POTENTIAL TOTAL3 TEMPAVG PRESSURE GPRESSURE VOLUME PRESSAVG GPRESSAVG
ENERGY: 100000 0.0000 0.0000 0.0000 0.0000 -14235.8330 2410.7775 0.0000 0.0000 172.2810 -11652.7745 29.7617 -11825.0555 -11652.4054 29.7617 -315.6372 -261.2431 28824.9107 -315.6372 -261.2431
ENERGY: 200000 0.0000 0.0000 0.0000 0.0000 -14094.0201 2342.4230 0.0000 0.0000 343.2998 -11408.2973 59.3053 -11751.5971 -11407.6449 59.9563 -645.8998 -581.9797 29000.2395 4.4451 4.4292
TCL: Running 100000 steps at 90 kelvin.
TCL: Setting parameter langevinTemp to 90
TCL: Running for 100000 steps
ETITLE: TS BOND ANGLE DIHED IMPRP ELECT VDW BOUNDARY MISC KINETIC TOTAL TEMP POTENTIAL TOTAL3 TEMPAVG PRESSURE GPRESSURE VOLUME PRESSAVG GPRESSAVG
ENERGY: 200000 0.0000 0.0000 0.0000 0.0000 -14094.0201 2342.4230 0.0000 0.0000 343.1249 -11408.4723 59.2751 -11751.5971 -11407.5609 59.2751 -634.5099 -582.3620 29000.2395 -634.5099 -582.3620
ENERGY: 300000 0.0000 0.0000 0.0000 0.0000 -14011.9065 2369.1994 0.0000 0.0000 526.0874 -11116.6197 90.8820 -11642.7071 -11114.9652 90.0740 135.1010 218.7172 28592.4874 4.7086 4.7202
TCL: Running 100000 steps at 120 kelvin.
TCL: Setting parameter langevinTemp to 120
TCL: Running for 100000 steps
ETITLE: TS BOND ANGLE DIHED IMPRP ELECT VDW BOUNDARY MISC KINETIC TOTAL TEMP POTENTIAL TOTAL3 TEMPAVG PRESSURE GPRESSURE VOLUME PRESSAVG GPRESSAVG
ENERGY: 300000 0.0000 0.0000 0.0000 0.0000 -14011.9065 2369.1994 0.0000 0.0000 525.8329 -11116.8742 90.8380 -11642.7071 -11115.9653 90.8380 160.0829 218.9826 28592.4874 160.0829 218.9826
ENERGY: 400000 0.0000 0.0000 0.0000 0.0000 -13615.9461 2086.1771 0.0000 0.0000 704.6868 -10825.0822 121.7352 -11529.7690 -10822.3312 119.7101 -1876.7623 -1847.1106 28981.2233 3.7187 3.6498
TCL: Running 100000 steps at 150 kelvin.
TCL: Setting parameter langevinTemp to 150
TCL: Running for 100000 steps
ETITLE: TS BOND ANGLE DIHED IMPRP ELECT VDW BOUNDARY MISC KINETIC TOTAL TEMP POTENTIAL TOTAL3 TEMPAVG PRESSURE GPRESSURE VOLUME PRESSAVG GPRESSAVG
ENERGY: 400000 0.0000 0.0000 0.0000 0.0000 -13615.9461 2086.1771 0.0000 0.0000 704.3489 -10825.4201 121.6768 -11529.7690 -10823.9283 121.6768 -1877.0207 -1846.3098 28981.2233 -1877.0207 -1846.3098
ENERGY: 500000 0.0000 0.0000 0.0000 0.0000 -13533.6735 2161.7233 0.0000 0.0000 897.6297 -10474.3205 155.0662 -11371.9502 -10472.7517 150.1781 -509.3249 -455.1206 28819.2472 2.4879 2.6348
TCL: Running 100000 steps at 180 kelvin.
TCL: Setting parameter langevinTemp to 180
TCL: Running for 100000 steps
ETITLE: TS BOND ANGLE DIHED IMPRP ELECT VDW BOUNDARY MISC KINETIC TOTAL TEMP POTENTIAL TOTAL3 TEMPAVG PRESSURE GPRESSURE VOLUME PRESSAVG GPRESSAVG
ENERGY: 500000 0.0000 0.0000 0.0000 0.0000 -13533.6735 2161.7233 0.0000 0.0000 897.2168 -10474.7334 154.9949 -11371.9502 -10472.9441 154.9949 -510.8076 -455.0949 28819.2472 -510.8076 -455.0949
ENERGY: 600000 0.0000 0.0000 0.0000 0.0000 -13106.6001 2016.1414 0.0000 0.0000 1019.0390 -10071.4198 176.0397 -11090.4588 -10070.5995 179.7677 -825.1042 -743.4808 28998.1157 4.1761 4.0958
TCL: Running 100000 steps at 210 kelvin.
TCL: Setting parameter langevinTemp to 210
TCL: Running for 100000 steps
ETITLE: TS BOND ANGLE DIHED IMPRP ELECT VDW BOUNDARY MISC KINETIC TOTAL TEMP POTENTIAL TOTAL3 TEMPAVG PRESSURE GPRESSURE VOLUME PRESSAVG GPRESSAVG
ENERGY: 600000 0.0000 0.0000 0.0000 0.0000 -13106.6001 2016.1414 0.0000 0.0000 1018.5011 -10071.9577 175.9468 -11090.4588 -10069.7913 175.9468 -800.7254 -743.0089 28998.1157 -800.7254 -743.0089
ENERGY: 700000 0.0000 0.0000 0.0000 0.0000 -12615.7847 1917.5026 0.0000 0.0000 1208.9474 -9489.3347 208.8465 -10698.2821 -9486.6288 209.8596 314.5642 363.2064 28423.6704 2.7797 3.0128
TCL: Running 100000 steps at 240 kelvin.
TCL: Setting parameter langevinTemp to 240
TCL: Running for 100000 steps
ETITLE: TS BOND ANGLE DIHED IMPRP ELECT VDW BOUNDARY MISC KINETIC TOTAL TEMP POTENTIAL TOTAL3 TEMPAVG PRESSURE GPRESSURE VOLUME PRESSAVG GPRESSAVG
ENERGY: 700000 0.0000 0.0000 0.0000 0.0000 -12615.7847 1917.5026 0.0000 0.0000 1208.3445 -9489.9376 208.7424 -10698.2821 -9488.2007 208.7424 292.8570 363.9813 28423.6704 292.8570 363.9813
ENERGY: 800000 0.0000 0.0000 0.0000 0.0000 -11983.9837 1689.1580 0.0000 0.0000 1397.1802 -8897.6456 241.3639 -10294.8258 -8895.3095 239.5955 -415.5912 -236.3303 28955.7078 3.6276 3.7694
TCL: Running 100000 steps at 270 kelvin.
TCL: Setting parameter langevinTemp to 270
TCL: Running for 100000 steps
ETITLE: TS BOND ANGLE DIHED IMPRP ELECT VDW BOUNDARY MISC KINETIC TOTAL TEMP POTENTIAL TOTAL3 TEMPAVG PRESSURE GPRESSURE VOLUME PRESSAVG GPRESSAVG
ENERGY: 800000 0.0000 0.0000 0.0000 0.0000 -11983.9837 1689.1580 0.0000 0.0000 1396.4946 -8898.3312 241.2455 -10294.8258 -8895.5061 241.2455 -318.8502 -237.9464 28955.7078 -318.8502 -237.9464
ENERGY: 900000 0.0000 0.0000 0.0000 0.0000 -11137.1819 1447.0749 0.0000 0.0000 1543.4027 -8146.7043 266.6240 -9690.1070 -8141.2369 269.8374 -694.7655 -617.8840 29698.0550 4.3165 4.0869
TCL: Running 1000000 steps at 300 kelvin.
TCL: Setting parameter langevinTemp to 300
TCL: Running for 1000000 steps
ETITLE: TS BOND ANGLE DIHED IMPRP ELECT VDW BOUNDARY MISC KINETIC TOTAL TEMP POTENTIAL TOTAL3 TEMPAVG PRESSURE GPRESSURE VOLUME PRESSAVG GPRESSAVG
ENERGY: 900000 0.0000 0.0000 0.0000 0.0000 -11137.1819 1447.0749 0.0000 0.0000 1542.6294 -8147.4776 266.4904 -9690.1070 -8144.6851 266.4904 -699.5418 -614.9355 29698.0550 -699.5418 -614.9355
ENERGY: 1100000 0.0000 0.0000 0.0000 0.0000 -10796.5109 1459.5313 0.0000 0.0000 1688.2031 -7648.7765 291.6383 -9336.9796 -7645.2529 299.9606 264.0631 338.7323 30528.4795 3.3370 3.2466
ENERGY: 1300000 0.0000 0.0000 0.0000 0.0000 -10754.5130 1452.1830 0.0000 0.0000 1747.9939 -7554.3361 301.9672 -9302.3300 -7552.8926 300.3071 191.5321 317.2701 30780.4683 3.1449 3.2294
ENERGY: 1500000 0.0000 0.0000 0.0000 0.0000 -10651.8015 1366.7938 0.0000 0.0000 1737.2447 -7547.7630 300.1103 -9285.0077 -7545.7906 300.0226 -117.8925 -87.1546 30410.3628 3.3826 3.4538
ENERGY: 1700000 0.0000 0.0000 0.0000 0.0000 -10952.4794 1476.7392 0.0000 0.0000 1704.5549 -7771.1853 294.4631 -9475.7402 -7766.6050 299.6258 29.8715 73.0989 30419.2659 3.6267 3.5714
ENERGY: 1900000 0.0000 0.0000 0.0000 0.0000 -10729.8234 1356.2216 0.0000 0.0000 1728.3004 -7645.3014 298.5652 -9373.6018 -7642.8539 299.7860 -414.1890 -398.2189 30261.9618 3.2717 3.1449
TCL: Exiting due to exit command.
