Info: SIMULATION PARAMETERS:
Info: TIMESTEP               2
Info: NUMBER OF STEPS        0
Info: STEPS PER CYCLE        10
Info: PERIODIC CELL BASIS 1  36.592 0 0
Info: PERIODIC CELL BASIS 2  0 34.696 0
Info: PERIODIC CELL BASIS 3  0 0 34.68
Info: PERIODIC CELL CENTER   0 0 0
Info: WRAPPING WATERS AROUND PERIODIC BOUNDARIES ON OUTPUT.
Info: WRAPPING ALL CLUSTERS AROUND PERIODIC BOUNDARIES ON OUTPUT.
Info: FIRST LDB TIMESTEP     50
Info: LAST LDB TIMESTEP     -1
Info: HOM BACKGROUND SCALING 1
Info: PME BACKGROUND SCALING 1
Info: MIN ATOMS PER PATCH    40
Info: EMPTY PATCH LOAD       40 ATOMS
Info: INITIAL TEMPERATURE    300
Info: CENTER OF MASS MOVING INITIALLY? NO
Info: DIELECTRIC             1
Info: EXCLUDE                SCALED ONE-FOUR
Info: 1-4 ELECTROSTATICS SCALED BY 0.833333
Info: MODIFIED 1-4 VDW PARAMETERS WILL BE USED
Info: DCD FILENAME           mobley_2310185_equil.dcd
Info: DCD FREQUENCY          100000
Info: DCD FIRST STEP         100000
Info: DCD FILE WILL CONTAIN UNIT CELL DATA
Info: XST FILENAME           mobley_2310185_equil.xst
Info: XST FREQUENCY          100000
Info: NO VELOCITY DCD OUTPUT
Info: NO FORCE DCD OUTPUT
Info: OUTPUT FILENAME        mobley_2310185_equil
Info: BINARY OUTPUT FILES WILL BE USED
Info: RESTART FILENAME       mobley_2310185_equil.restart
Info: RESTART FREQUENCY      100000
Info: BINARY RESTART FILES WILL BE USED
Info: CUTOFF                 9
Info: PAIRLIST DISTANCE      11
Info: PAIRLIST SHRINK RATE   0.01
Info: PAIRLIST GROW RATE     0.01
Info: PAIRLIST TRIGGER       0.3
Info: PAIRLISTS PER CYCLE    2
Info: PAIRLISTS ENABLED
Info: MARGIN                 8
Info: HYDROGEN GROUP CUTOFF  2.5
Info: PATCH DIMENSION        21.5
Info: ENERGY OUTPUT STEPS    100000
Info: ENERGY EVALUATION STEPS    100000
Info: OUTPUT ENERGY PRECISION 4
Info: CROSSTERM ENERGY INCLUDED IN DIHEDRAL
Info: TIMING OUTPUT STEPS    1000000
Info: PRESSURE OUTPUT STEPS  100000
Info: FIXED ATOMS ACTIVE
Info: LANGEVIN DYNAMICS ACTIVE
Info: LANGEVIN TEMPERATURE   30
Info: LANGEVIN USING BBK INTEGRATOR
Info: LANGEVIN DAMPING COEFFICIENT IS 1 INVERSE PS
Info: LANGEVIN DYNAMICS APPLIED TO HYDROGENS
Info: LANGEVIN PISTON PRESSURE CONTROL ACTIVE
Info:        TARGET PRESSURE IS 1.01325 BAR
Info:     OSCILLATION PERIOD IS 50 FS
Info:             DECAY TIME IS 25 FS
Info:     PISTON TEMPERATURE IS 300 K
Info:       PRESSURE CONTROL IS GROUP-BASED
Info:    INITIAL STRAIN RATE IS 0 0 0
Info:       CELL FLUCTUATION IS ISOTROPIC
Info: PARTICLE MESH EWALD (PME) ACTIVE
Info: PME TOLERANCE               1e-06
Info: PME EWALD COEFFICIENT       0.348832
Info: PME INTERPOLATION ORDER     4
Info: PME GRID DIMENSIONS         40 36 36
Info: PME MAXIMUM GRID SPACING    1
Info: FULL ELECTROSTATIC EVALUATION FREQUENCY      2
Info: USING VERLET I (r-RESPA) MTS SCHEME.
Info: C1 SPLITTING OF LONG RANGE ELECTROSTATICS
Info: PLACING ATOMS IN PATCHES BY HYDROGEN GROUPS
Info: RIGID BONDS TO HYDROGEN : ALL
Info:         ERROR TOLERANCE : 1e-08
Info:          MAX ITERATIONS : 100
Info: RIGID WATER USING SETTLE ALGORITHM
Info: RANDOM NUMBER SEED     1743674201
Info: USE HYDROGEN BONDS?    NO
Info: Using AMBER format force field!
Info: AMBER PARM FILE        mobley_2310185.prmtop
Info: COORDINATE PDB         mobley_2310185.pdb
Info: Exclusions will be read from PARM file!
Info: SCNB (VDW SCALING)     2
Info: USING ARITHMETIC MEAN TO COMBINE L-J SIGMA PARAMETERS
Info: BINARY COORDINATES     mobley_2310185_min.coor
Info: SUMMARY OF PARAMETERS:
Info: 7 BONDS
Info: 7 ANGLES
Info:   7 HARMONIC
Info:   0 COSINE-BASED
Info: 5 DIHEDRAL
Info: 0 IMPROPER
Info: 0 CROSSTERM
Info: 0 VDW
Info: 21 VDW_PAIRS
Info: 0 NBTHOLE_PAIRS
Info: STRUCTURE SUMMARY:
Info: 2934 ATOMS
Info: 2933 BONDS
Info: 13 ANGLES
Info: 16 DIHEDRALS
Info: 0 IMPROPERS
Info: 0 CROSSTERMS
Info: 2958 EXCLUSIONS
Info: 9 FIXED ATOMS
Info: 2931 RIGID BONDS
Info: 6 RIGID BONDS BETWEEN FIXED ATOMS
Info: 5850 DEGREES OF FREEDOM
Info: 978 HYDROGEN GROUPS
Info: 4 ATOMS IN LARGEST HYDROGEN GROUP
Info: 978 MIGRATION GROUPS
Info: 4 ATOMS IN LARGEST MIGRATION GROUP
Info: 3 HYDROGEN GROUPS WITH ALL ATOMS FIXED
Info: TOTAL MASS = 17611.7 amu
Info: TOTAL CHARGE = -9.99831e-05 e
Info: MASS DENSITY = 0.664225 g/cm^3
Info: ATOM DENSITY = 0.066637 atoms/A^3
Info: ADDED 0 IMPLICIT EXCLUSIONS
Info: NONBONDED TABLE R-SQUARED SPACING: 0.0625
Info: NONBONDED TABLE SIZE: 705 POINTS
Info: REMOVING COM VELOCITY -0.00594122 -0.0477546 0.0226831
TCL: Running for 100000 steps
ETITLE: TS BOND ANGLE DIHED IMPRP ELECT VDW BOUNDARY MISC KINETIC TOTAL TEMP POTENTIAL TOTAL3 TEMPAVG PRESSURE GPRESSURE VOLUME PRESSAVG GPRESSAVG
ENERGY: 0 0.0000 0.0000 0.0000 0.0000 -13606.2928 2389.2373 0.0000 0.0000 1792.1277 -9424.9279 308.3213 -11217.0556 -9424.5686 308.3213 481.9229 507.9729 44029.5904 481.9229 507.9729
ENERGY: 100000 0.0000 0.0000 0.0000 0.0000 -14080.1935 2369.4294 0.0000 0.0000 175.9235 -11534.8407 30.2662 -11710.7641 -11534.4885 30.8912 -591.4371 -563.1703 29056.3932 3.6377 3.5595
TCL: Running 100000 steps at 60 kelvin.
TCL: Setting parameter langevinTemp to 60
TCL: Running for 100000 steps
ETITLE: TS BOND ANGLE DIHED IMPRP ELECT VDW BOUNDARY MISC KINETIC TOTAL TEMP POTENTIAL TOTAL3 TEMPAVG PRESSURE GPRESSURE VOLUME PRESSAVG GPRESSAVG
ENERGY: 100000 0.0000 0.0000 0.0000 0.0000 -14080.1935 2369.4294 0.0000 0.0000 175.8377 -11534.9265 30.2515 -11710.7641 -11534.4904 30.2515 -607.5777 -563.5524 29056.3932 -607.5777 -563.5524
ENERGY: 200000 0.0000 0.0000 0.0000 0.0000 -14072.0554 2379.7061 0.0000 0.0000 347.8551 -11344.4942 59.8457 -11692.3493 -11343.3178 59.8987 -220.0267 -183.3330 28305.2779 4.4762 4.4685
TCL: Running 100000 steps at 90 kelvin.
TCL: Setting parameter langevinTemp to 90
TCL: Running for 100000 steps
ETITLE: TS BOND ANGLE DIHED IMPRP ELECT VDW BOUNDARY MISC KINETIC TOTAL TEMP POTENTIAL TOTAL3 TEMPAVG PRESSURE GPRESSURE VOLUME PRESSAVG GPRESSAVG
ENERGY: 200000 0.0000 0.0000 0.0000 0.0000 -14072.0554 2379.7061 0.0000 0.0000 347.6853 -11344.6640 59.8165 -11692.3493 -11343.8360 59.8165 -235.5583 -183.2665 28305.2779 -235.5583 -183.2665
ENERGY: 300000 0.0000 0.0000 0.0000 0.0000 -14018.8441 2425.7410 0.0000 0.0000 532.6589 -11060.4441 91.6397 -11593.1030 -11058.5693 89.9491 511.2319 552.9018 28348.6609 4.3645 4.3985
TCL: Running 100000 steps at 120 kelvin.
TCL: Setting parameter langevinTemp to 120
TCL: Running for 100000 steps
ETITLE: TS BOND ANGLE DIHED IMPRP ELECT VDW BOUNDARY MISC KINETIC TOTAL TEMP POTENTIAL TOTAL3 TEMPAVG PRESSURE GPRESSURE VOLUME PRESSAVG GPRESSAVG
ENERGY: 300000 0.0000 0.0000 0.0000 0.0000 -14018.8441 2425.7410 0.0000 0.0000 532.4071 -11060.6959 91.5964 -11593.1030 -11059.6664 91.5964 509.1097 553.2060 28348.6609 509.1097 553.2060
ENERGY: 400000 0.0000 0.0000 0.0000 0.0000 -13740.7092 2324.4222 0.0000 0.0000 705.7526 -10710.5343 121.4191 -11416.2870 -10708.1581 119.9830 352.8146 386.8803 28321.0808 3.5375 3.5918
TCL: Running 100000 steps at 150 kelvin.
TCL: Setting parameter langevinTemp to 150
TCL: Running for 100000 steps
ETITLE: TS BOND ANGLE DIHED IMPRP ELECT VDW BOUNDARY MISC KINETIC TOTAL TEMP POTENTIAL TOTAL3 TEMPAVG PRESSURE GPRESSURE VOLUME PRESSAVG GPRESSAVG
ENERGY: 400000 0.0000 0.0000 0.0000 0.0000 -13740.7092 2324.4222 0.0000 0.0000 705.4155 -10710.8715 121.3611 -11416.2870 -10709.3756 121.3611 322.0658 387.7590 28321.0808 322.0658 387.7590
ENERGY: 500000 0.0000 0.0000 0.0000 0.0000 -13441.1608 2137.8084 0.0000 0.0000 865.5016 -10437.8508 148.9026 -11303.3524 -10436.1582 149.6924 -990.5156 -942.2521 28785.8100 3.8116 3.8112
TCL: Running 100000 steps at 180 kelvin.
TCL: Setting parameter langevinTemp to 180
TCL: Running for 100000 steps
ETITLE: TS BOND ANGLE DIHED IMPRP ELECT VDW BOUNDARY MISC KINETIC TOTAL TEMP POTENTIAL TOTAL3 TEMPAVG PRESSURE GPRESSURE VOLUME PRESSAVG GPRESSAVG
ENERGY: 500000 0.0000 0.0000 0.0000 0.0000 -13441.1608 2137.8084 0.0000 0.0000 865.0627 -10438.2898 148.8271 -11303.3524 -10436.3503 148.8271 -999.9542 -942.1120 28785.8100 -999.9542 -942.1120
ENERGY: 600000 0.0000 0.0000 0.0000 0.0000 -12916.6841 1962.3233 0.0000 0.0000 1073.2766 -9881.0842 184.6487 -10954.3609 -9878.8981 179.5429 -1050.2844 -981.7981 28618.4353 5.0307 5.0409
TCL: Running 100000 steps at 210 kelvin.
TCL: Setting parameter langevinTemp to 210
TCL: Running for 100000 steps
ETITLE: TS BOND ANGLE DIHED IMPRP ELECT VDW BOUNDARY MISC KINETIC TOTAL TEMP POTENTIAL TOTAL3 TEMPAVG PRESSURE GPRESSURE VOLUME PRESSAVG GPRESSAVG
ENERGY: 600000 0.0000 0.0000 0.0000 0.0000 -12916.6841 1962.3233 0.0000 0.0000 1072.7406 -9881.6203 184.5565 -10954.3609 -9879.4174 184.5565 -1037.5391 -980.8888 28618.4353 -1037.5391 -980.8888
ENERGY: 700000 0.0000 0.0000 0.0000 0.0000 -12561.3956 2003.9913 0.0000 0.0000 1234.5130 -9322.8913 212.3881 -10557.4043 -9319.9150 209.9748 754.1698 896.0393 28360.0351 3.8755 3.6019
TCL: Running 100000 steps at 240 kelvin.
TCL: Setting parameter langevinTemp to 240
TCL: Running for 100000 steps
ETITLE: TS BOND ANGLE DIHED IMPRP ELECT VDW BOUNDARY MISC KINETIC TOTAL TEMP POTENTIAL TOTAL3 TEMPAVG PRESSURE GPRESSURE VOLUME PRESSAVG GPRESSAVG
ENERGY: 700000 0.0000 0.0000 0.0000 0.0000 -12561.3956 2003.9913 0.0000 0.0000 1233.9013 -9323.5030 212.2829 -10557.4043 -9321.4855 212.2829 827.1112 897.2979 28360.0351 827.1112 897.2979
ENERGY: 800000 0.0000 0.0000 0.0000 0.0000 -11884.0913 1787.2544 0.0000 0.0000 1429.2755 -8667.5613 245.8954 -10096.8368 -8665.2710 239.4097 483.3859 578.9151 28775.3025 3.5937 3.7384
TCL: Running 100000 steps at 270 kelvin.
TCL: Setting parameter langevinTemp to 270
TCL: Running for 100000 steps
ETITLE: TS BOND ANGLE DIHED IMPRP ELECT VDW BOUNDARY MISC KINETIC TOTAL TEMP POTENTIAL TOTAL3 TEMPAVG PRESSURE GPRESSURE VOLUME PRESSAVG GPRESSAVG
ENERGY: 800000 0.0000 0.0000 0.0000 0.0000 -11884.0913 1787.2544 0.0000 0.0000 1428.5747 -8668.2621 245.7749 -10096.8368 -8665.8441 245.7749 499.1323 578.9137 28775.3025 499.1323 578.9137
ENERGY: 900000 0.0000 0.0000 0.0000 0.0000 -11197.0688 1583.1422 0.0000 0.0000 1586.4950 -8027.4316 272.9438 -9613.9266 -8025.4236 269.8850 178.0219 259.9634 29648.6173 3.0107 3.1078
TCL: Running 1000000 steps at 300 kelvin.
TCL: Setting parameter langevinTemp to 300
TCL: Running for 1000000 steps
ETITLE: TS BOND ANGLE DIHED IMPRP ELECT VDW BOUNDARY MISC KINETIC TOTAL TEMP POTENTIAL TOTAL3 TEMPAVG PRESSURE GPRESSURE VOLUME PRESSAVG GPRESSAVG
ENERGY: 900000 0.0000 0.0000 0.0000 0.0000 -11197.0688 1583.1422 0.0000 0.0000 1585.7227 -8028.2039 272.8109 -9613.9266 -8025.5084 272.8109 166.9455 258.3791 29648.6173 166.9455 258.3791
ENERGY: 1100000 0.0000 0.0000 0.0000 0.0000 -10535.9763 1298.7825 0.0000 0.0000 1761.6285 -7475.5652 303.0741 -9237.1938 -7472.1399 299.3105 -999.5267 -883.4904 30457.8092 2.5179 2.5619
ENERGY: 1300000 0.0000 0.0000 0.0000 0.0000 -10647.9334 1432.4179 0.0000 0.0000 1761.9992 -7453.5163 303.1379 -9215.5155 -7448.4576 300.2353 -52.5957 -12.0453 30446.8450 2.8430 2.8300
ENERGY: 1500000 0.0000 0.0000 0.0000 0.0000 -10659.8257 1392.5800 0.0000 0.0000 1719.1261 -7548.1196 295.7619 -9267.2458 -7544.3153 300.3680 -410.7887 -339.0009 30331.7424 4.6464 4.6314
ENERGY: 1700000 0.0000 0.0000 0.0000 0.0000 -10699.2560 1411.6009 0.0000 0.0000 1701.0884 -7586.5667 292.6587 -9287.6551 -7585.7994 299.6609 -348.4290 -330.1944 30544.5107 2.6443 2.6198
ENERGY: 1900000 0.0000 0.0000 0.0000 0.0000 -10654.7367 1398.0553 0.0000 0.0000 1710.8779 -7545.8035 294.3429 -9256.6814 -7544.5348 300.1774 -270.2339 -192.4076 30244.9976 3.5316 3.4166
TCL: Exiting due to exit command.
