Info: SIMULATION PARAMETERS:
Info: TIMESTEP               2
Info: NUMBER OF STEPS        0
Info: STEPS PER CYCLE        10
Info: PERIODIC CELL BASIS 1  36.592 0 0
Info: PERIODIC CELL BASIS 2  0 35.267 0
Info: PERIODIC CELL BASIS 3  0 0 34.229
Info: PERIODIC CELL CENTER   0 0 0
Info: WRAPPING WATERS AROUND PERIODIC BOUNDARIES ON OUTPUT.
Info: WRAPPING ALL CLUSTERS AROUND PERIODIC BOUNDARIES ON OUTPUT.
Info: FIRST LDB TIMESTEP     50
Info: LAST LDB TIMESTEP     -1
Info: HOM BACKGROUND SCALING 1
Info: PME BACKGROUND SCALING 1
Info: MIN ATOMS PER PATCH    40
Info: EMPTY PATCH LOAD       40 ATOMS
Info: INITIAL TEMPERATURE    300
Info: CENTER OF MASS MOVING INITIALLY? NO
Info: DIELECTRIC             1
Info: EXCLUDE                SCALED ONE-FOUR
Info: 1-4 ELECTROSTATICS SCALED BY 0.833333
Info: MODIFIED 1-4 VDW PARAMETERS WILL BE USED
Info: DCD FILENAME           mobley_303222_equil.dcd
Info: DCD FREQUENCY          100000
Info: DCD FIRST STEP         100000
Info: DCD FILE WILL CONTAIN UNIT CELL DATA
Info: XST FILENAME           mobley_303222_equil.xst
Info: XST FREQUENCY          100000
Info: NO VELOCITY DCD OUTPUT
Info: NO FORCE DCD OUTPUT
Info: OUTPUT FILENAME        mobley_303222_equil
Info: BINARY OUTPUT FILES WILL BE USED
Info: RESTART FILENAME       mobley_303222_equil.restart
Info: RESTART FREQUENCY      100000
Info: BINARY RESTART FILES WILL BE USED
Info: CUTOFF                 9
Info: PAIRLIST DISTANCE      11
Info: PAIRLIST SHRINK RATE   0.01
Info: PAIRLIST GROW RATE     0.01
Info: PAIRLIST TRIGGER       0.3
Info: PAIRLISTS PER CYCLE    2
Info: PAIRLISTS ENABLED
Info: MARGIN                 8
Info: HYDROGEN GROUP CUTOFF  2.5
Info: PATCH DIMENSION        21.5
Info: ENERGY OUTPUT STEPS    100000
Info: ENERGY EVALUATION STEPS    100000
Info: OUTPUT ENERGY PRECISION 4
Info: CROSSTERM ENERGY INCLUDED IN DIHEDRAL
Info: TIMING OUTPUT STEPS    1000000
Info: PRESSURE OUTPUT STEPS  100000
Info: FIXED ATOMS ACTIVE
Info: LANGEVIN DYNAMICS ACTIVE
Info: LANGEVIN TEMPERATURE   30
Info: LANGEVIN USING BBK INTEGRATOR
Info: LANGEVIN DAMPING COEFFICIENT IS 1 INVERSE PS
Info: LANGEVIN DYNAMICS APPLIED TO HYDROGENS
Info: LANGEVIN PISTON PRESSURE CONTROL ACTIVE
Info:        TARGET PRESSURE IS 1.01325 BAR
Info:     OSCILLATION PERIOD IS 50 FS
Info:             DECAY TIME IS 25 FS
Info:     PISTON TEMPERATURE IS 300 K
Info:       PRESSURE CONTROL IS GROUP-BASED
Info:    INITIAL STRAIN RATE IS 0 0 0
Info:       CELL FLUCTUATION IS ISOTROPIC
Info: PARTICLE MESH EWALD (PME) ACTIVE
Info: PME TOLERANCE               1e-06
Info: PME EWALD COEFFICIENT       0.348832
Info: PME INTERPOLATION ORDER     4
Info: PME GRID DIMENSIONS         40 36 36
Info: PME MAXIMUM GRID SPACING    1
Info: FULL ELECTROSTATIC EVALUATION FREQUENCY      2
Info: USING VERLET I (r-RESPA) MTS SCHEME.
Info: C1 SPLITTING OF LONG RANGE ELECTROSTATICS
Info: PLACING ATOMS IN PATCHES BY HYDROGEN GROUPS
Info: RIGID BONDS TO HYDROGEN : ALL
Info:         ERROR TOLERANCE : 1e-08
Info:          MAX ITERATIONS : 100
Info: RIGID WATER USING SETTLE ALGORITHM
Info: RANDOM NUMBER SEED     1743674526
Info: USE HYDROGEN BONDS?    NO
Info: Using AMBER format force field!
Info: AMBER PARM FILE        mobley_303222.prmtop
Info: COORDINATE PDB         mobley_303222.pdb
Info: Exclusions will be read from PARM file!
Info: SCNB (VDW SCALING)     2
Info: USING ARITHMETIC MEAN TO COMBINE L-J SIGMA PARAMETERS
Info: BINARY COORDINATES     mobley_303222_min.coor
Info: SUMMARY OF PARAMETERS:
Info: 6 BONDS
Info: 6 ANGLES
Info: 5 DIHEDRAL
Info: 0 IMPROPER
Info: 0 CROSSTERM
Info: 0 VDW
Info: 21 VDW_PAIRS
Info: 0 NBTHOLE_PAIRS
Info: STRUCTURE SUMMARY:
Info: 2907 ATOMS
Info: 2906 BONDS
Info: 12 ANGLES
Info: 18 DIHEDRALS
Info: 0 IMPROPERS
Info: 0 CROSSTERMS
Info: 2928 EXCLUSIONS
Info: 9 FIXED ATOMS
Info: 2904 RIGID BONDS
Info: 6 RIGID BONDS BETWEEN FIXED ATOMS
Info: 5796 DEGREES OF FREEDOM
Info: 969 HYDROGEN GROUPS
Info: 4 ATOMS IN LARGEST HYDROGEN GROUP
Info: 969 MIGRATION GROUPS
Info: 4 ATOMS IN LARGEST MIGRATION GROUP
Info: 3 HYDROGEN GROUPS WITH ALL ATOMS FIXED
Info: TOTAL MASS = 17445.5 amu
Info: TOTAL CHARGE = -9.99942e-05 e
Info: MASS DENSITY = 0.655835 g/cm^3
Info: ATOM DENSITY = 0.0658106 atoms/A^3
Info: ADDED 0 IMPLICIT EXCLUSIONS
Info: NONBONDED TABLE R-SQUARED SPACING: 0.0625
Info: NONBONDED TABLE SIZE: 705 POINTS
Info: REMOVING COM VELOCITY 0.0625837 0.0231946 0.266381
TCL: Running for 100000 steps
ETITLE: TS BOND ANGLE DIHED IMPRP ELECT VDW BOUNDARY MISC KINETIC TOTAL TEMP POTENTIAL TOTAL3 TEMPAVG PRESSURE GPRESSURE VOLUME PRESSAVG GPRESSAVG
ENERGY: 0 0.0000 0.0000 0.0000 0.0000 -13418.7551 2366.4691 0.0000 0.0000 1711.2691 -9341.0169 297.1531 -11052.2860 -9340.6843 297.1531 435.2458 474.0296 44172.1844 435.2458 474.0296
ENERGY: 100000 0.0000 0.0000 0.0000 0.0000 -14119.2637 2491.9707 0.0000 0.0000 173.0426 -11454.2504 30.0480 -11627.2930 -11453.7871 30.9349 544.9798 592.2906 27840.0961 2.8023 2.7836
TCL: Running 100000 steps at 60 kelvin.
TCL: Setting parameter langevinTemp to 60
TCL: Running for 100000 steps
ETITLE: TS BOND ANGLE DIHED IMPRP ELECT VDW BOUNDARY MISC KINETIC TOTAL TEMP POTENTIAL TOTAL3 TEMPAVG PRESSURE GPRESSURE VOLUME PRESSAVG GPRESSAVG
ENERGY: 100000 0.0000 0.0000 0.0000 0.0000 -14119.2637 2491.9707 0.0000 0.0000 172.9575 -11454.3355 30.0332 -11627.2930 -11454.0108 30.0332 541.4202 592.3592 27840.0961 541.4202 592.3592
ENERGY: 200000 0.0000 0.0000 0.0000 0.0000 -13927.9453 2392.9550 0.0000 0.0000 346.1430 -11188.8474 60.1060 -11534.9904 -11188.2150 59.8347 -8.0695 77.7854 28041.6548 3.4176 3.3837
TCL: Running 100000 steps at 90 kelvin.
TCL: Setting parameter langevinTemp to 90
TCL: Running for 100000 steps
ETITLE: TS BOND ANGLE DIHED IMPRP ELECT VDW BOUNDARY MISC KINETIC TOTAL TEMP POTENTIAL TOTAL3 TEMPAVG PRESSURE GPRESSURE VOLUME PRESSAVG GPRESSAVG
ENERGY: 200000 0.0000 0.0000 0.0000 0.0000 -13927.9453 2392.9550 0.0000 0.0000 345.9756 -11189.0148 60.0769 -11534.9904 -11188.5690 60.0769 22.5445 77.7401 28041.6548 22.5445 77.7401
ENERGY: 300000 0.0000 0.0000 0.0000 0.0000 -13720.2733 2305.1454 0.0000 0.0000 518.2829 -10896.8451 89.9972 -11415.1280 -10895.8099 90.0003 -289.2335 -252.6603 28189.4123 3.7647 3.7461
TCL: Running 100000 steps at 120 kelvin.
TCL: Setting parameter langevinTemp to 120
TCL: Running for 100000 steps
ETITLE: TS BOND ANGLE DIHED IMPRP ELECT VDW BOUNDARY MISC KINETIC TOTAL TEMP POTENTIAL TOTAL3 TEMPAVG PRESSURE GPRESSURE VOLUME PRESSAVG GPRESSAVG
ENERGY: 300000 0.0000 0.0000 0.0000 0.0000 -13720.2733 2305.1454 0.0000 0.0000 518.0323 -10897.0956 89.9537 -11415.1280 -10896.0091 89.9537 -302.6431 -252.3163 28189.4123 -302.6431 -252.3163
ENERGY: 400000 0.0000 0.0000 0.0000 0.0000 -13637.0098 2329.8025 0.0000 0.0000 677.7023 -10629.5049 117.6795 -11307.2072 -10627.5327 119.9521 161.1279 231.9960 28267.2795 3.6417 3.5730
TCL: Running 100000 steps at 150 kelvin.
TCL: Setting parameter langevinTemp to 150
TCL: Running for 100000 steps
ETITLE: TS BOND ANGLE DIHED IMPRP ELECT VDW BOUNDARY MISC KINETIC TOTAL TEMP POTENTIAL TOTAL3 TEMPAVG PRESSURE GPRESSURE VOLUME PRESSAVG GPRESSAVG
ENERGY: 400000 0.0000 0.0000 0.0000 0.0000 -13637.0098 2329.8025 0.0000 0.0000 677.3703 -10629.8370 117.6219 -11307.2072 -10628.6820 117.6219 171.0093 231.7886 28267.2795 171.0093 231.7886
ENERGY: 500000 0.0000 0.0000 0.0000 0.0000 -13321.7758 2205.0969 0.0000 0.0000 838.6192 -10278.0597 145.6219 -11116.6789 -10276.7498 149.9801 -32.9131 54.3930 28186.7684 4.8805 4.9657
TCL: Running 100000 steps at 180 kelvin.
TCL: Setting parameter langevinTemp to 180
TCL: Running for 100000 steps
ETITLE: TS BOND ANGLE DIHED IMPRP ELECT VDW BOUNDARY MISC KINETIC TOTAL TEMP POTENTIAL TOTAL3 TEMPAVG PRESSURE GPRESSURE VOLUME PRESSAVG GPRESSAVG
ENERGY: 500000 0.0000 0.0000 0.0000 0.0000 -13321.7758 2205.0969 0.0000 0.0000 838.1913 -10278.4876 145.5476 -11116.6789 -10276.7910 145.5476 4.1179 53.0047 28186.7684 4.1179 53.0047
ENERGY: 600000 0.0000 0.0000 0.0000 0.0000 -13009.1595 2171.7977 0.0000 0.0000 1017.5744 -9819.7874 176.6966 -10837.3618 -9818.0686 179.4116 519.9652 580.2203 28432.7154 2.9444 2.8582
TCL: Running 100000 steps at 210 kelvin.
TCL: Setting parameter langevinTemp to 210
TCL: Running for 100000 steps
ETITLE: TS BOND ANGLE DIHED IMPRP ELECT VDW BOUNDARY MISC KINETIC TOTAL TEMP POTENTIAL TOTAL3 TEMPAVG PRESSURE GPRESSURE VOLUME PRESSAVG GPRESSAVG
ENERGY: 600000 0.0000 0.0000 0.0000 0.0000 -13009.1595 2171.7977 0.0000 0.0000 1017.0592 -9820.3026 176.6071 -10837.3618 -9818.1482 176.6071 513.3358 580.5431 28432.7154 513.3358 580.5431
ENERGY: 700000 0.0000 0.0000 0.0000 0.0000 -12314.9071 1955.5866 0.0000 0.0000 1222.3268 -9136.9938 212.2508 -10359.3206 -9134.7058 209.8010 870.9138 897.3565 28227.6988 4.3351 4.3810
TCL: Running 100000 steps at 240 kelvin.
TCL: Setting parameter langevinTemp to 240
TCL: Running for 100000 steps
ETITLE: TS BOND ANGLE DIHED IMPRP ELECT VDW BOUNDARY MISC KINETIC TOTAL TEMP POTENTIAL TOTAL3 TEMPAVG PRESSURE GPRESSURE VOLUME PRESSAVG GPRESSAVG
ENERGY: 700000 0.0000 0.0000 0.0000 0.0000 -12314.9071 1955.5866 0.0000 0.0000 1221.7243 -9137.5963 212.1462 -10359.3206 -9135.8583 212.1462 832.6167 898.3976 28227.6988 832.6167 898.3976
ENERGY: 800000 0.0000 0.0000 0.0000 0.0000 -11551.6939 1610.9167 0.0000 0.0000 1370.1456 -8570.6317 237.9188 -9940.7772 -8568.2109 240.3787 -641.6833 -552.2611 28552.1750 3.2068 3.1707
TCL: Running 100000 steps at 270 kelvin.
TCL: Setting parameter langevinTemp to 270
TCL: Running for 100000 steps
ETITLE: TS BOND ANGLE DIHED IMPRP ELECT VDW BOUNDARY MISC KINETIC TOTAL TEMP POTENTIAL TOTAL3 TEMPAVG PRESSURE GPRESSURE VOLUME PRESSAVG GPRESSAVG
ENERGY: 800000 0.0000 0.0000 0.0000 0.0000 -11551.6939 1610.9167 0.0000 0.0000 1369.4444 -8571.3329 237.7970 -9940.7772 -8569.4078 237.7970 -626.8687 -552.1547 28552.1750 -626.8687 -552.1547
ENERGY: 900000 0.0000 0.0000 0.0000 0.0000 -11161.9484 1532.6772 0.0000 0.0000 1536.5867 -8092.6845 266.8204 -9629.2712 -8089.1460 269.5094 -582.0780 -483.1947 29278.7346 3.7276 3.6962
TCL: Running 1000000 steps at 300 kelvin.
TCL: Setting parameter langevinTemp to 300
TCL: Running for 1000000 steps
ETITLE: TS BOND ANGLE DIHED IMPRP ELECT VDW BOUNDARY MISC KINETIC TOTAL TEMP POTENTIAL TOTAL3 TEMPAVG PRESSURE GPRESSURE VOLUME PRESSAVG GPRESSAVG
ENERGY: 900000 0.0000 0.0000 0.0000 0.0000 -11161.9484 1532.6772 0.0000 0.0000 1535.8000 -8093.4711 266.6838 -9629.2712 -8090.9320 266.6838 -572.2044 -484.3962 29278.7346 -572.2044 -484.3962
ENERGY: 1100000 0.0000 0.0000 0.0000 0.0000 -10512.8715 1360.6953 0.0000 0.0000 1793.1102 -7359.0660 311.3644 -9152.1762 -7355.0846 299.9157 -589.1391 -482.7860 30136.0099 3.2892 3.4637
ENERGY: 1300000 0.0000 0.0000 0.0000 0.0000 -10501.8131 1457.0510 0.0000 0.0000 1714.9085 -7329.8536 297.7851 -9044.7621 -7324.7451 299.9624 720.2478 822.2718 29767.2577 2.1190 2.1123
ENERGY: 1500000 0.0000 0.0000 0.0000 0.0000 -10403.5864 1300.0520 0.0000 0.0000 1693.6894 -7409.8450 294.1005 -9103.5345 -7404.9871 300.6489 -893.4770 -791.6416 30034.8527 3.5714 3.4165
ENERGY: 1700000 0.0000 0.0000 0.0000 0.0000 -10570.8492 1419.0690 0.0000 0.0000 1660.2676 -7491.5126 288.2970 -9151.7802 -7487.7090 299.8507 -164.4385 -92.8905 30136.8497 2.1713 2.1057
ENERGY: 1900000 0.0000 0.0000 0.0000 0.0000 -10292.8016 1231.5834 0.0000 0.0000 1724.0677 -7337.1505 299.3755 -9061.2182 -7335.4885 300.1432 -1484.5788 -1368.8923 30491.0086 3.6014 3.6371
TCL: Exiting due to exit command.
