Info: SIMULATION PARAMETERS:
Info: TIMESTEP               2
Info: NUMBER OF STEPS        0
Info: STEPS PER CYCLE        10
Info: PERIODIC CELL BASIS 1  37.435 0 0
Info: PERIODIC CELL BASIS 2  0 36.611 0
Info: PERIODIC CELL BASIS 3  0 0 31.855
Info: PERIODIC CELL CENTER   0 0 0
Info: WRAPPING WATERS AROUND PERIODIC BOUNDARIES ON OUTPUT.
Info: WRAPPING ALL CLUSTERS AROUND PERIODIC BOUNDARIES ON OUTPUT.
Info: FIRST LDB TIMESTEP     50
Info: LAST LDB TIMESTEP     -1
Info: HOM BACKGROUND SCALING 1
Info: PME BACKGROUND SCALING 1
Info: MIN ATOMS PER PATCH    40
Info: EMPTY PATCH LOAD       40 ATOMS
Info: INITIAL TEMPERATURE    300
Info: CENTER OF MASS MOVING INITIALLY? NO
Info: DIELECTRIC             1
Info: EXCLUDE                SCALED ONE-FOUR
Info: 1-4 ELECTROSTATICS SCALED BY 0.833333
Info: MODIFIED 1-4 VDW PARAMETERS WILL BE USED
Info: DCD FILENAME           mobley_9257453_equil.dcd
Info: DCD FREQUENCY          100000
Info: DCD FIRST STEP         100000
Info: DCD FILE WILL CONTAIN UNIT CELL DATA
Info: XST FILENAME           mobley_9257453_equil.xst
Info: XST FREQUENCY          100000
Info: NO VELOCITY DCD OUTPUT
Info: NO FORCE DCD OUTPUT
Info: OUTPUT FILENAME        mobley_9257453_equil
Info: BINARY OUTPUT FILES WILL BE USED
Info: RESTART FILENAME       mobley_9257453_equil.restart
Info: RESTART FREQUENCY      100000
Info: BINARY RESTART FILES WILL BE USED
Info: CUTOFF                 9
Info: PAIRLIST DISTANCE      11
Info: PAIRLIST SHRINK RATE   0.01
Info: PAIRLIST GROW RATE     0.01
Info: PAIRLIST TRIGGER       0.3
Info: PAIRLISTS PER CYCLE    2
Info: PAIRLISTS ENABLED
Info: MARGIN                 8
Info: HYDROGEN GROUP CUTOFF  2.5
Info: PATCH DIMENSION        21.5
Info: ENERGY OUTPUT STEPS    100000
Info: ENERGY EVALUATION STEPS    100000
Info: OUTPUT ENERGY PRECISION 4
Info: CROSSTERM ENERGY INCLUDED IN DIHEDRAL
Info: TIMING OUTPUT STEPS    1000000
Info: PRESSURE OUTPUT STEPS  100000
Info: FIXED ATOMS ACTIVE
Info: LANGEVIN DYNAMICS ACTIVE
Info: LANGEVIN TEMPERATURE   30
Info: LANGEVIN USING BBK INTEGRATOR
Info: LANGEVIN DAMPING COEFFICIENT IS 1 INVERSE PS
Info: LANGEVIN DYNAMICS APPLIED TO HYDROGENS
Info: LANGEVIN PISTON PRESSURE CONTROL ACTIVE
Info:        TARGET PRESSURE IS 1.01325 BAR
Info:     OSCILLATION PERIOD IS 50 FS
Info:             DECAY TIME IS 25 FS
Info:     PISTON TEMPERATURE IS 300 K
Info:       PRESSURE CONTROL IS GROUP-BASED
Info:    INITIAL STRAIN RATE IS 0 0 0
Info:       CELL FLUCTUATION IS ISOTROPIC
Info: PARTICLE MESH EWALD (PME) ACTIVE
Info: PME TOLERANCE               1e-06
Info: PME EWALD COEFFICIENT       0.348832
Info: PME INTERPOLATION ORDER     4
Info: PME GRID DIMENSIONS         40 40 32
Info: PME MAXIMUM GRID SPACING    1
Info: FULL ELECTROSTATIC EVALUATION FREQUENCY      2
Info: USING VERLET I (r-RESPA) MTS SCHEME.
Info: C1 SPLITTING OF LONG RANGE ELECTROSTATICS
Info: PLACING ATOMS IN PATCHES BY HYDROGEN GROUPS
Info: RIGID BONDS TO HYDROGEN : ALL
Info:         ERROR TOLERANCE : 1e-08
Info:          MAX ITERATIONS : 100
Info: RIGID WATER USING SETTLE ALGORITHM
Info: RANDOM NUMBER SEED     1743730863
Info: USE HYDROGEN BONDS?    NO
Info: Using AMBER format force field!
Info: AMBER PARM FILE        mobley_9257453.prmtop
Info: COORDINATE PDB         mobley_9257453.pdb
Info: Exclusions will be read from PARM file!
Info: SCNB (VDW SCALING)     2
Info: USING ARITHMETIC MEAN TO COMBINE L-J SIGMA PARAMETERS
Info: BINARY COORDINATES     mobley_9257453_min.coor
Info: SUMMARY OF PARAMETERS:
Info: 7 BONDS
Info: 5 ANGLES
Info:   5 HARMONIC
Info:   0 COSINE-BASED
Info: 3 DIHEDRAL
Info: 0 IMPROPER
Info: 0 CROSSTERM
Info: 0 VDW
Info: 21 VDW_PAIRS
Info: 0 NBTHOLE_PAIRS
Info: STRUCTURE SUMMARY:
Info: 2992 ATOMS
Info: 2992 BONDS
Info: 19 ANGLES
Info: 32 DIHEDRALS
Info: 0 IMPROPERS
Info: 0 CROSSTERMS
Info: 3034 EXCLUSIONS
Info: 13 FIXED ATOMS
Info: 2983 RIGID BONDS
Info: 4 RIGID BONDS BETWEEN FIXED ATOMS
Info: 5958 DEGREES OF FREEDOM
Info: 1002 HYDROGEN GROUPS
Info: 3 ATOMS IN LARGEST HYDROGEN GROUP
Info: 1002 MIGRATION GROUPS
Info: 3 ATOMS IN LARGEST MIGRATION GROUP
Info: 9 HYDROGEN GROUPS WITH ALL ATOMS FIXED
Info: TOTAL MASS = 18052.9 amu
Info: TOTAL CHARGE = 2.42144e-08 e
Info: MASS DENSITY = 0.686655 g/cm^3
Info: ATOM DENSITY = 0.0685322 atoms/A^3
Info: ADDED 0 IMPLICIT EXCLUSIONS
Info: NONBONDED TABLE R-SQUARED SPACING: 0.0625
Info: NONBONDED TABLE SIZE: 705 POINTS
Info: REMOVING COM VELOCITY -0.0815949 -0.0292682 -0.143845
TCL: Running for 100000 steps
ETITLE: TS BOND ANGLE DIHED IMPRP ELECT VDW BOUNDARY MISC KINETIC TOTAL TEMP POTENTIAL TOTAL3 TEMPAVG PRESSURE GPRESSURE VOLUME PRESSAVG GPRESSAVG
ENERGY: 0 0.0000 0.0000 0.0000 0.0000 -13915.4606 2372.3204 0.0000 0.0000 1809.6260 -9733.5143 305.6882 -11543.1402 -9733.1341 305.6882 -60.7120 -20.4767 43658.3219 -60.7120 -20.4767
ENERGY: 100000 0.0000 0.0000 0.0000 0.0000 -14549.1337 2622.3633 0.0000 0.0000 175.6028 -11751.1676 29.6634 -11926.7704 -11750.8084 30.9581 809.6771 864.5172 30061.8730 4.2395 4.2914
TCL: Running 100000 steps at 60 kelvin.
TCL: Setting parameter langevinTemp to 60
TCL: Running for 100000 steps
ETITLE: TS BOND ANGLE DIHED IMPRP ELECT VDW BOUNDARY MISC KINETIC TOTAL TEMP POTENTIAL TOTAL3 TEMPAVG PRESSURE GPRESSURE VOLUME PRESSAVG GPRESSAVG
ENERGY: 100000 0.0000 0.0000 0.0000 0.0000 -14549.1337 2622.3633 0.0000 0.0000 175.5145 -11751.2559 29.6485 -11926.7704 -11750.9020 29.6485 810.5171 864.4476 30061.8730 810.5171 864.4476
ENERGY: 200000 0.0000 0.0000 0.0000 0.0000 -14565.5423 2706.8895 0.0000 0.0000 357.7523 -11500.9006 60.4327 -11858.6529 -11500.3668 59.7821 1931.5965 1990.0242 29419.6942 4.5846 4.5461
TCL: Running 100000 steps at 90 kelvin.
TCL: Setting parameter langevinTemp to 90
TCL: Running for 100000 steps
ETITLE: TS BOND ANGLE DIHED IMPRP ELECT VDW BOUNDARY MISC KINETIC TOTAL TEMP POTENTIAL TOTAL3 TEMPAVG PRESSURE GPRESSURE VOLUME PRESSAVG GPRESSAVG
ENERGY: 200000 0.0000 0.0000 0.0000 0.0000 -14565.5423 2706.8895 0.0000 0.0000 357.5765 -11501.0764 60.4030 -11858.6529 -11500.6020 60.4030 1943.3460 1990.2131 29419.6942 1943.3460 1990.2131
ENERGY: 300000 0.0000 0.0000 0.0000 0.0000 -14051.6137 2278.0855 0.0000 0.0000 540.8557 -11232.6725 91.3632 -11773.5282 -11232.1028 89.7168 -1109.7360 -1042.7414 29645.7343 4.3885 4.5095
TCL: Running 100000 steps at 120 kelvin.
TCL: Setting parameter langevinTemp to 120
TCL: Running for 100000 steps
ETITLE: TS BOND ANGLE DIHED IMPRP ELECT VDW BOUNDARY MISC KINETIC TOTAL TEMP POTENTIAL TOTAL3 TEMPAVG PRESSURE GPRESSURE VOLUME PRESSAVG GPRESSAVG
ENERGY: 300000 0.0000 0.0000 0.0000 0.0000 -14051.6137 2278.0855 0.0000 0.0000 540.5886 -11232.9396 91.3181 -11773.5282 -11231.6351 91.3181 -1095.6818 -1043.3509 29645.7343 -1095.6818 -1043.3509
ENERGY: 400000 0.0000 0.0000 0.0000 0.0000 -14072.0493 2392.5093 0.0000 0.0000 688.3836 -10991.1563 116.2841 -11679.5399 -10989.6945 119.8974 103.0018 176.5453 29326.8175 5.0687 5.0436
TCL: Running 100000 steps at 150 kelvin.
TCL: Setting parameter langevinTemp to 150
TCL: Running for 100000 steps
ETITLE: TS BOND ANGLE DIHED IMPRP ELECT VDW BOUNDARY MISC KINETIC TOTAL TEMP POTENTIAL TOTAL3 TEMPAVG PRESSURE GPRESSURE VOLUME PRESSAVG GPRESSAVG
ENERGY: 400000 0.0000 0.0000 0.0000 0.0000 -14072.0493 2392.5093 0.0000 0.0000 688.0191 -10991.5209 116.2225 -11679.5399 -10990.1587 116.2225 129.0228 175.9373 29326.8175 129.0228 175.9373
ENERGY: 500000 0.0000 0.0000 0.0000 0.0000 -13819.1538 2303.2165 0.0000 0.0000 873.0783 -10642.8590 147.4834 -11515.9373 -10640.1379 149.6722 -299.6393 -241.1806 29846.4743 1.9735 1.9761
TCL: Running 100000 steps at 180 kelvin.
TCL: Setting parameter langevinTemp to 180
TCL: Running for 100000 steps
ETITLE: TS BOND ANGLE DIHED IMPRP ELECT VDW BOUNDARY MISC KINETIC TOTAL TEMP POTENTIAL TOTAL3 TEMPAVG PRESSURE GPRESSURE VOLUME PRESSAVG GPRESSAVG
ENERGY: 500000 0.0000 0.0000 0.0000 0.0000 -13819.1538 2303.2165 0.0000 0.0000 872.6190 -10643.3182 147.4058 -11515.9373 -10641.6476 147.4058 -289.9992 -240.2896 29846.4743 -289.9992 -240.2896
ENERGY: 600000 0.0000 0.0000 0.0000 0.0000 -13369.3852 2196.8355 0.0000 0.0000 1058.4887 -10114.0610 178.8035 -11172.5497 -10111.5425 179.9274 383.3240 455.5350 29265.6678 3.0776 3.1221
TCL: Running 100000 steps at 210 kelvin.
TCL: Setting parameter langevinTemp to 210
TCL: Running for 100000 steps
ETITLE: TS BOND ANGLE DIHED IMPRP ELECT VDW BOUNDARY MISC KINETIC TOTAL TEMP POTENTIAL TOTAL3 TEMPAVG PRESSURE GPRESSURE VOLUME PRESSAVG GPRESSAVG
ENERGY: 600000 0.0000 0.0000 0.0000 0.0000 -13369.3852 2196.8355 0.0000 0.0000 1057.9530 -10114.5967 178.7131 -11172.5497 -10112.9137 178.7131 396.1639 454.4203 29265.6678 396.1639 454.4203
ENERGY: 700000 0.0000 0.0000 0.0000 0.0000 -12416.7453 1747.6657 0.0000 0.0000 1217.7333 -9451.3462 205.7037 -10669.0795 -9448.3609 209.8237 -1442.2166 -1289.2593 29309.9760 2.9591 3.0089
TCL: Running 100000 steps at 240 kelvin.
TCL: Setting parameter langevinTemp to 240
TCL: Running for 100000 steps
ETITLE: TS BOND ANGLE DIHED IMPRP ELECT VDW BOUNDARY MISC KINETIC TOTAL TEMP POTENTIAL TOTAL3 TEMPAVG PRESSURE GPRESSURE VOLUME PRESSAVG GPRESSAVG
ENERGY: 700000 0.0000 0.0000 0.0000 0.0000 -12416.7453 1747.6657 0.0000 0.0000 1217.1143 -9451.9653 205.5991 -10669.0795 -9449.9921 205.5991 -1361.2378 -1288.0628 29309.9760 -1361.2378 -1288.0628
ENERGY: 800000 0.0000 0.0000 0.0000 0.0000 -11851.0961 1605.3217 0.0000 0.0000 1406.8640 -8838.9104 237.6523 -10245.7744 -8836.8637 239.6021 -787.2582 -683.7442 29161.1256 1.7190 1.8721
TCL: Running 100000 steps at 270 kelvin.
TCL: Setting parameter langevinTemp to 270
TCL: Running for 100000 steps
ETITLE: TS BOND ANGLE DIHED IMPRP ELECT VDW BOUNDARY MISC KINETIC TOTAL TEMP POTENTIAL TOTAL3 TEMPAVG PRESSURE GPRESSURE VOLUME PRESSAVG GPRESSAVG
ENERGY: 800000 0.0000 0.0000 0.0000 0.0000 -11851.0961 1605.3217 0.0000 0.0000 1406.1358 -8839.6386 237.5293 -10245.7744 -8837.2780 237.5293 -779.0255 -684.3323 29161.1256 -779.0255 -684.3323
ENERGY: 900000 0.0000 0.0000 0.0000 0.0000 -11360.4976 1544.7003 0.0000 0.0000 1591.4245 -8224.3727 268.8289 -9815.7973 -8223.3274 269.3384 -310.9881 -181.0463 30286.4100 2.1577 2.3295
TCL: Running 1000000 steps at 300 kelvin.
TCL: Setting parameter langevinTemp to 300
TCL: Running for 1000000 steps
ETITLE: TS BOND ANGLE DIHED IMPRP ELECT VDW BOUNDARY MISC KINETIC TOTAL TEMP POTENTIAL TOTAL3 TEMPAVG PRESSURE GPRESSURE VOLUME PRESSAVG GPRESSAVG
ENERGY: 900000 0.0000 0.0000 0.0000 0.0000 -11360.4976 1544.7003 0.0000 0.0000 1590.6034 -8225.1938 268.6902 -9815.7973 -8223.3205 268.6902 -272.5617 -182.9182 30286.4100 -272.5617 -182.9182
ENERGY: 1100000 0.0000 0.0000 0.0000 0.0000 -10762.8722 1386.4061 0.0000 0.0000 1747.9330 -7628.5330 295.2668 -9376.4661 -7625.8697 299.7804 -523.8381 -437.2807 31354.3750 3.6115 3.5536
ENERGY: 1300000 0.0000 0.0000 0.0000 0.0000 -10945.9414 1476.4927 0.0000 0.0000 1772.5084 -7696.9403 299.4182 -9469.4487 -7692.1361 300.4888 112.5112 231.5303 30682.6163 2.7236 2.6453
ENERGY: 1500000 0.0000 0.0000 0.0000 0.0000 -10908.7349 1437.9162 0.0000 0.0000 1782.3097 -7688.5090 301.0739 -9470.8188 -7684.5351 299.9187 -286.8285 -197.1746 30857.7041 3.7701 3.9497
ENERGY: 1700000 0.0000 0.0000 0.0000 0.0000 -10790.9191 1377.4712 0.0000 0.0000 1770.6656 -7642.7822 299.1069 -9413.4479 -7640.9883 300.0760 -508.9063 -424.0202 30869.0000 2.8293 2.9416
ENERGY: 1900000 0.0000 0.0000 0.0000 0.0000 -10895.9892 1487.3022 0.0000 0.0000 1791.2112 -7617.4758 302.5775 -9408.6871 -7614.1795 300.0546 162.2086 263.8705 31109.3807 3.4864 3.5690
TCL: Exiting due to exit command.
