Info: SIMULATION PARAMETERS:
Info: TIMESTEP               2
Info: NUMBER OF STEPS        0
Info: STEPS PER CYCLE        10
Info: PERIODIC CELL BASIS 1  36.592 0 0
Info: PERIODIC CELL BASIS 2  0 35.779 0
Info: PERIODIC CELL BASIS 3  0 0 34.229
Info: PERIODIC CELL CENTER   0 0 0
Info: WRAPPING WATERS AROUND PERIODIC BOUNDARIES ON OUTPUT.
Info: WRAPPING ALL CLUSTERS AROUND PERIODIC BOUNDARIES ON OUTPUT.
Info: FIRST LDB TIMESTEP     50
Info: LAST LDB TIMESTEP     -1
Info: HOM BACKGROUND SCALING 1
Info: PME BACKGROUND SCALING 1
Info: MIN ATOMS PER PATCH    40
Info: EMPTY PATCH LOAD       40 ATOMS
Info: INITIAL TEMPERATURE    300
Info: CENTER OF MASS MOVING INITIALLY? NO
Info: DIELECTRIC             1
Info: EXCLUDE                SCALED ONE-FOUR
Info: 1-4 ELECTROSTATICS SCALED BY 0.833333
Info: MODIFIED 1-4 VDW PARAMETERS WILL BE USED
Info: DCD FILENAME           mobley_3682850_equil.dcd
Info: DCD FREQUENCY          100000
Info: DCD FIRST STEP         100000
Info: DCD FILE WILL CONTAIN UNIT CELL DATA
Info: XST FILENAME           mobley_3682850_equil.xst
Info: XST FREQUENCY          100000
Info: NO VELOCITY DCD OUTPUT
Info: NO FORCE DCD OUTPUT
Info: OUTPUT FILENAME        mobley_3682850_equil
Info: BINARY OUTPUT FILES WILL BE USED
Info: RESTART FILENAME       mobley_3682850_equil.restart
Info: RESTART FREQUENCY      100000
Info: BINARY RESTART FILES WILL BE USED
Info: CUTOFF                 9
Info: PAIRLIST DISTANCE      11
Info: PAIRLIST SHRINK RATE   0.01
Info: PAIRLIST GROW RATE     0.01
Info: PAIRLIST TRIGGER       0.3
Info: PAIRLISTS PER CYCLE    2
Info: PAIRLISTS ENABLED
Info: MARGIN                 8
Info: HYDROGEN GROUP CUTOFF  2.5
Info: PATCH DIMENSION        21.5
Info: ENERGY OUTPUT STEPS    100000
Info: ENERGY EVALUATION STEPS    100000
Info: OUTPUT ENERGY PRECISION 4
Info: CROSSTERM ENERGY INCLUDED IN DIHEDRAL
Info: TIMING OUTPUT STEPS    1000000
Info: PRESSURE OUTPUT STEPS  100000
Info: FIXED ATOMS ACTIVE
Info: LANGEVIN DYNAMICS ACTIVE
Info: LANGEVIN TEMPERATURE   30
Info: LANGEVIN USING BBK INTEGRATOR
Info: LANGEVIN DAMPING COEFFICIENT IS 1 INVERSE PS
Info: LANGEVIN DYNAMICS APPLIED TO HYDROGENS
Info: LANGEVIN PISTON PRESSURE CONTROL ACTIVE
Info:        TARGET PRESSURE IS 1.01325 BAR
Info:     OSCILLATION PERIOD IS 50 FS
Info:             DECAY TIME IS 25 FS
Info:     PISTON TEMPERATURE IS 300 K
Info:       PRESSURE CONTROL IS GROUP-BASED
Info:    INITIAL STRAIN RATE IS 0 0 0
Info:       CELL FLUCTUATION IS ISOTROPIC
Info: PARTICLE MESH EWALD (PME) ACTIVE
Info: PME TOLERANCE               1e-06
Info: PME EWALD COEFFICIENT       0.348832
Info: PME INTERPOLATION ORDER     4
Info: PME GRID DIMENSIONS         40 36 36
Info: PME MAXIMUM GRID SPACING    1
Info: FULL ELECTROSTATIC EVALUATION FREQUENCY      2
Info: USING VERLET I (r-RESPA) MTS SCHEME.
Info: C1 SPLITTING OF LONG RANGE ELECTROSTATICS
Info: PLACING ATOMS IN PATCHES BY HYDROGEN GROUPS
Info: RIGID BONDS TO HYDROGEN : ALL
Info:         ERROR TOLERANCE : 1e-08
Info:          MAX ITERATIONS : 100
Info: RIGID WATER USING SETTLE ALGORITHM
Info: RANDOM NUMBER SEED     1743739429
Info: USE HYDROGEN BONDS?    NO
Info: Using AMBER format force field!
Info: AMBER PARM FILE        mobley_3682850.prmtop
Info: COORDINATE PDB         mobley_3682850.pdb
Info: Exclusions will be read from PARM file!
Info: SCNB (VDW SCALING)     2
Info: USING ARITHMETIC MEAN TO COMBINE L-J SIGMA PARAMETERS
Info: BINARY COORDINATES     mobley_3682850_min.coor
Info: SUMMARY OF PARAMETERS:
Info: 6 BONDS
Info: 7 ANGLES
Info:   7 HARMONIC
Info:   0 COSINE-BASED
Info: 11 DIHEDRAL
Info: 0 IMPROPER
Info: 0 CROSSTERM
Info: 0 VDW
Info: 21 VDW_PAIRS
Info: 0 NBTHOLE_PAIRS
Info: STRUCTURE SUMMARY:
Info: 2972 ATOMS
Info: 2972 BONDS
Info: 33 ANGLES
Info: 61 DIHEDRALS
Info: 0 IMPROPERS
Info: 0 CROSSTERMS
Info: 3050 EXCLUSIONS
Info: 17 FIXED ATOMS
Info: 2965 RIGID BONDS
Info: 10 RIGID BONDS BETWEEN FIXED ATOMS
Info: 5910 DEGREES OF FREEDOM
Info: 992 HYDROGEN GROUPS
Info: 3 ATOMS IN LARGEST HYDROGEN GROUP
Info: 992 MIGRATION GROUPS
Info: 3 ATOMS IN LARGEST MIGRATION GROUP
Info: 7 HYDROGEN GROUPS WITH ALL ATOMS FIXED
Info: TOTAL MASS = 17843.9 amu
Info: TOTAL CHARGE = 0.000299945 e
Info: MASS DENSITY = 0.661212 g/cm^3
Info: ATOM DENSITY = 0.0663193 atoms/A^3
Info: ADDED 0 IMPLICIT EXCLUSIONS
Info: NONBONDED TABLE R-SQUARED SPACING: 0.0625
Info: NONBONDED TABLE SIZE: 705 POINTS
Info: REMOVING COM VELOCITY 0.200111 -0.197521 0.0638502
TCL: Running for 100000 steps
ETITLE: TS BOND ANGLE DIHED IMPRP ELECT VDW BOUNDARY MISC KINETIC TOTAL TEMP POTENTIAL TOTAL3 TEMPAVG PRESSURE GPRESSURE VOLUME PRESSAVG GPRESSAVG
ENERGY: 0 0.0000 0.0000 0.0000 0.0000 -13759.5208 2394.5218 0.0000 0.0000 1761.0313 -9603.9677 299.8955 -11364.9990 -9603.5856 299.8955 295.1182 337.8361 44813.4683 295.1182 337.8361
ENERGY: 100000 0.0000 0.0000 0.0000 0.0000 -14391.0173 2516.7603 0.0000 0.0000 173.2650 -11700.9919 29.5062 -11874.2569 -11700.6779 30.9333 373.7823 434.8637 28798.7348 3.5081 3.5239
TCL: Running 100000 steps at 60 kelvin.
TCL: Setting parameter langevinTemp to 60
TCL: Running for 100000 steps
ETITLE: TS BOND ANGLE DIHED IMPRP ELECT VDW BOUNDARY MISC KINETIC TOTAL TEMP POTENTIAL TOTAL3 TEMPAVG PRESSURE GPRESSURE VOLUME PRESSAVG GPRESSAVG
ENERGY: 100000 0.0000 0.0000 0.0000 0.0000 -14391.0173 2516.7603 0.0000 0.0000 173.1803 -11701.0767 29.4918 -11874.2569 -11700.6822 29.4918 383.3818 434.7640 28798.7348 383.3818 434.7640
ENERGY: 200000 0.0000 0.0000 0.0000 0.0000 -14095.8688 2296.0273 0.0000 0.0000 350.1035 -11449.7380 59.6210 -11799.8415 -11448.5553 59.9457 -1099.0965 -1062.8209 28899.4370 3.5374 3.6327
TCL: Running 100000 steps at 90 kelvin.
TCL: Setting parameter langevinTemp to 90
TCL: Running for 100000 steps
ETITLE: TS BOND ANGLE DIHED IMPRP ELECT VDW BOUNDARY MISC KINETIC TOTAL TEMP POTENTIAL TOTAL3 TEMPAVG PRESSURE GPRESSURE VOLUME PRESSAVG GPRESSAVG
ENERGY: 200000 0.0000 0.0000 0.0000 0.0000 -14095.8688 2296.0273 0.0000 0.0000 349.9280 -11449.9136 59.5911 -11799.8415 -11449.2032 59.5911 -1109.5438 -1062.6326 28899.4370 -1109.5438 -1062.6326
ENERGY: 300000 0.0000 0.0000 0.0000 0.0000 -14083.6518 2401.6157 0.0000 0.0000 529.1096 -11152.9265 90.1049 -11682.0361 -11151.6568 90.0868 220.3267 289.7748 28762.7431 4.9564 5.0114
TCL: Running 100000 steps at 120 kelvin.
TCL: Setting parameter langevinTemp to 120
TCL: Running for 100000 steps
ETITLE: TS BOND ANGLE DIHED IMPRP ELECT VDW BOUNDARY MISC KINETIC TOTAL TEMP POTENTIAL TOTAL3 TEMPAVG PRESSURE GPRESSURE VOLUME PRESSAVG GPRESSAVG
ENERGY: 300000 0.0000 0.0000 0.0000 0.0000 -14083.6518 2401.6157 0.0000 0.0000 528.8422 -11153.1939 90.0594 -11682.0361 -11152.2926 90.0594 244.4581 289.6232 28762.7431 244.4581 289.6232
ENERGY: 400000 0.0000 0.0000 0.0000 0.0000 -14032.6205 2436.5198 0.0000 0.0000 696.6135 -10899.4872 118.6301 -11596.1007 -10898.2919 120.2166 948.0802 970.9533 28467.3038 2.8966 2.9753
TCL: Running 100000 steps at 150 kelvin.
TCL: Setting parameter langevinTemp to 150
TCL: Running for 100000 steps
ETITLE: TS BOND ANGLE DIHED IMPRP ELECT VDW BOUNDARY MISC KINETIC TOTAL TEMP POTENTIAL TOTAL3 TEMPAVG PRESSURE GPRESSURE VOLUME PRESSAVG GPRESSAVG
ENERGY: 400000 0.0000 0.0000 0.0000 0.0000 -14032.6205 2436.5198 0.0000 0.0000 696.2397 -10899.8610 118.5664 -11596.1007 -10898.8362 118.5664 920.9304 969.9442 28467.3038 920.9304 969.9442
ENERGY: 500000 0.0000 0.0000 0.0000 0.0000 -13629.2033 2233.4475 0.0000 0.0000 871.2734 -10524.4825 148.3738 -11395.7558 -10522.8920 150.0435 -255.2330 -209.1664 29187.4911 3.8750 3.8682
TCL: Running 100000 steps at 180 kelvin.
TCL: Setting parameter langevinTemp to 180
TCL: Running for 100000 steps
ETITLE: TS BOND ANGLE DIHED IMPRP ELECT VDW BOUNDARY MISC KINETIC TOTAL TEMP POTENTIAL TOTAL3 TEMPAVG PRESSURE GPRESSURE VOLUME PRESSAVG GPRESSAVG
ENERGY: 500000 0.0000 0.0000 0.0000 0.0000 -13629.2033 2233.4475 0.0000 0.0000 870.8263 -10524.9296 148.2977 -11395.7558 -10523.1062 148.2977 -272.8214 -210.2144 29187.4911 -272.8214 -210.2144
ENERGY: 600000 0.0000 0.0000 0.0000 0.0000 -13223.8231 2135.4065 0.0000 0.0000 1070.4467 -10017.9699 182.2921 -11088.4166 -10015.7377 179.9167 8.7014 85.4573 29135.4914 3.1357 3.2873
TCL: Running 100000 steps at 210 kelvin.
TCL: Setting parameter langevinTemp to 210
TCL: Running for 100000 steps
ETITLE: TS BOND ANGLE DIHED IMPRP ELECT VDW BOUNDARY MISC KINETIC TOTAL TEMP POTENTIAL TOTAL3 TEMPAVG PRESSURE GPRESSURE VOLUME PRESSAVG GPRESSAVG
ENERGY: 600000 0.0000 0.0000 0.0000 0.0000 -13223.8231 2135.4065 0.0000 0.0000 1069.9054 -10018.5112 182.2000 -11088.4166 -10016.7076 182.2000 17.7016 86.1444 29135.4914 17.7016 86.1444
ENERGY: 700000 0.0000 0.0000 0.0000 0.0000 -12599.6956 1926.1777 0.0000 0.0000 1239.4320 -9434.0860 211.0696 -10673.5179 -9433.1860 210.0695 116.9997 259.7148 28717.3398 4.4670 4.2897
TCL: Running 100000 steps at 240 kelvin.
TCL: Setting parameter langevinTemp to 240
TCL: Running for 100000 steps
ETITLE: TS BOND ANGLE DIHED IMPRP ELECT VDW BOUNDARY MISC KINETIC TOTAL TEMP POTENTIAL TOTAL3 TEMPAVG PRESSURE GPRESSURE VOLUME PRESSAVG GPRESSAVG
ENERGY: 700000 0.0000 0.0000 0.0000 0.0000 -12599.6956 1926.1777 0.0000 0.0000 1238.8486 -9434.6693 210.9702 -10673.5179 -9432.6864 210.9702 167.7964 257.6598 28717.3398 167.7964 257.6598
ENERGY: 800000 0.0000 0.0000 0.0000 0.0000 -11890.6179 1723.7646 0.0000 0.0000 1430.9578 -8735.8954 243.6855 -10166.8532 -8734.8371 239.5325 470.9255 461.9227 28910.7954 3.1799 3.1414
TCL: Running 100000 steps at 270 kelvin.
TCL: Setting parameter langevinTemp to 270
TCL: Running for 100000 steps
ETITLE: TS BOND ANGLE DIHED IMPRP ELECT VDW BOUNDARY MISC KINETIC TOTAL TEMP POTENTIAL TOTAL3 TEMPAVG PRESSURE GPRESSURE VOLUME PRESSAVG GPRESSAVG
ENERGY: 800000 0.0000 0.0000 0.0000 0.0000 -11890.6179 1723.7646 0.0000 0.0000 1430.2483 -8736.6049 243.5647 -10166.8532 -8734.9477 243.5647 380.8691 462.3931 28910.7954 380.8691 462.3931
ENERGY: 900000 0.0000 0.0000 0.0000 0.0000 -11574.9457 1711.9623 0.0000 0.0000 1588.9664 -8274.0169 270.5937 -9862.9834 -8271.7953 270.2137 1036.1880 1110.8983 29431.9079 4.8965 4.7510
TCL: Running 1000000 steps at 300 kelvin.
TCL: Setting parameter langevinTemp to 300
TCL: Running for 1000000 steps
ETITLE: TS BOND ANGLE DIHED IMPRP ELECT VDW BOUNDARY MISC KINETIC TOTAL TEMP POTENTIAL TOTAL3 TEMPAVG PRESSURE GPRESSURE VOLUME PRESSAVG GPRESSAVG
ENERGY: 900000 0.0000 0.0000 0.0000 0.0000 -11574.9457 1711.9623 0.0000 0.0000 1588.1646 -8274.8188 270.4571 -9862.9834 -8272.4330 270.4571 1024.5730 1110.2824 29431.9079 1024.5730 1110.2824
ENERGY: 1100000 0.0000 0.0000 0.0000 0.0000 -10633.0724 1321.0091 0.0000 0.0000 1761.3685 -7550.6948 299.9530 -9312.0634 -7548.3721 300.5724 -705.4144 -662.8557 30577.5930 3.4064 3.4590
ENERGY: 1300000 0.0000 0.0000 0.0000 0.0000 -10883.5917 1447.2820 0.0000 0.0000 1707.6893 -7728.6204 290.8116 -9436.3097 -7724.9849 300.1792 -77.4417 -22.3314 30123.3368 3.0235 2.9558
ENERGY: 1500000 0.0000 0.0000 0.0000 0.0000 -10723.5634 1376.0197 0.0000 0.0000 1757.6260 -7589.9177 299.3156 -9347.5437 -7585.8187 300.1760 -469.1652 -378.7294 30715.4536 2.3568 2.3390
ENERGY: 1700000 0.0000 0.0000 0.0000 0.0000 -10828.8408 1462.7786 0.0000 0.0000 1742.9452 -7623.1170 296.8155 -9366.0622 -7619.3921 300.0659 168.9447 270.2453 30711.3977 2.7105 2.7318
ENERGY: 1900000 0.0000 0.0000 0.0000 0.0000 -10864.3478 1445.8314 0.0000 0.0000 1733.6793 -7684.8372 295.2376 -9418.5164 -7680.8240 300.3146 -105.5511 -64.5018 30504.7271 3.0235 2.9224
TCL: Exiting due to exit command.
