Info: SIMULATION PARAMETERS:
Info: TIMESTEP               2
Info: NUMBER OF STEPS        0
Info: STEPS PER CYCLE        10
Info: PERIODIC CELL BASIS 1  37.435 0 0
Info: PERIODIC CELL BASIS 2  0 35.847 0
Info: PERIODIC CELL BASIS 3  0 0 31.855
Info: PERIODIC CELL CENTER   0 0 0
Info: WRAPPING WATERS AROUND PERIODIC BOUNDARIES ON OUTPUT.
Info: WRAPPING ALL CLUSTERS AROUND PERIODIC BOUNDARIES ON OUTPUT.
Info: FIRST LDB TIMESTEP     50
Info: LAST LDB TIMESTEP     -1
Info: HOM BACKGROUND SCALING 1
Info: PME BACKGROUND SCALING 1
Info: MIN ATOMS PER PATCH    40
Info: EMPTY PATCH LOAD       40 ATOMS
Info: INITIAL TEMPERATURE    300
Info: CENTER OF MASS MOVING INITIALLY? NO
Info: DIELECTRIC             1
Info: EXCLUDE                SCALED ONE-FOUR
Info: 1-4 ELECTROSTATICS SCALED BY 0.833333
Info: MODIFIED 1-4 VDW PARAMETERS WILL BE USED
Info: DCD FILENAME           mobley_3969312_equil.dcd
Info: DCD FREQUENCY          100000
Info: DCD FIRST STEP         100000
Info: DCD FILE WILL CONTAIN UNIT CELL DATA
Info: XST FILENAME           mobley_3969312_equil.xst
Info: XST FREQUENCY          100000
Info: NO VELOCITY DCD OUTPUT
Info: NO FORCE DCD OUTPUT
Info: OUTPUT FILENAME        mobley_3969312_equil
Info: BINARY OUTPUT FILES WILL BE USED
Info: RESTART FILENAME       mobley_3969312_equil.restart
Info: RESTART FREQUENCY      100000
Info: BINARY RESTART FILES WILL BE USED
Info: CUTOFF                 9
Info: PAIRLIST DISTANCE      11
Info: PAIRLIST SHRINK RATE   0.01
Info: PAIRLIST GROW RATE     0.01
Info: PAIRLIST TRIGGER       0.3
Info: PAIRLISTS PER CYCLE    2
Info: PAIRLISTS ENABLED
Info: MARGIN                 8
Info: HYDROGEN GROUP CUTOFF  2.5
Info: PATCH DIMENSION        21.5
Info: ENERGY OUTPUT STEPS    100000
Info: ENERGY EVALUATION STEPS    100000
Info: OUTPUT ENERGY PRECISION 4
Info: CROSSTERM ENERGY INCLUDED IN DIHEDRAL
Info: TIMING OUTPUT STEPS    1000000
Info: PRESSURE OUTPUT STEPS  100000
Info: FIXED ATOMS ACTIVE
Info: LANGEVIN DYNAMICS ACTIVE
Info: LANGEVIN TEMPERATURE   30
Info: LANGEVIN USING BBK INTEGRATOR
Info: LANGEVIN DAMPING COEFFICIENT IS 1 INVERSE PS
Info: LANGEVIN DYNAMICS APPLIED TO HYDROGENS
Info: LANGEVIN PISTON PRESSURE CONTROL ACTIVE
Info:        TARGET PRESSURE IS 1.01325 BAR
Info:     OSCILLATION PERIOD IS 50 FS
Info:             DECAY TIME IS 25 FS
Info:     PISTON TEMPERATURE IS 300 K
Info:       PRESSURE CONTROL IS GROUP-BASED
Info:    INITIAL STRAIN RATE IS 0 0 0
Info:       CELL FLUCTUATION IS ISOTROPIC
Info: PARTICLE MESH EWALD (PME) ACTIVE
Info: PME TOLERANCE               1e-06
Info: PME EWALD COEFFICIENT       0.348832
Info: PME INTERPOLATION ORDER     4
Info: PME GRID DIMENSIONS         40 36 32
Info: PME MAXIMUM GRID SPACING    1
Info: FULL ELECTROSTATIC EVALUATION FREQUENCY      2
Info: USING VERLET I (r-RESPA) MTS SCHEME.
Info: C1 SPLITTING OF LONG RANGE ELECTROSTATICS
Info: PLACING ATOMS IN PATCHES BY HYDROGEN GROUPS
Info: RIGID BONDS TO HYDROGEN : ALL
Info:         ERROR TOLERANCE : 1e-08
Info:          MAX ITERATIONS : 100
Info: RIGID WATER USING SETTLE ALGORITHM
Info: RANDOM NUMBER SEED     1743901137
Info: USE HYDROGEN BONDS?    NO
Info: Using AMBER format force field!
Info: AMBER PARM FILE        mobley_3969312.prmtop
Info: COORDINATE PDB         mobley_3969312.pdb
Info: Exclusions will be read from PARM file!
Info: SCNB (VDW SCALING)     2
Info: USING ARITHMETIC MEAN TO COMBINE L-J SIGMA PARAMETERS
Info: BINARY COORDINATES     mobley_3969312_min.coor
Info: SUMMARY OF PARAMETERS:
Info: 7 BONDS
Info: 6 ANGLES
Info:   6 HARMONIC
Info:   0 COSINE-BASED
Info: 4 DIHEDRAL
Info: 0 IMPROPER
Info: 0 CROSSTERM
Info: 0 VDW
Info: 21 VDW_PAIRS
Info: 0 NBTHOLE_PAIRS
Info: STRUCTURE SUMMARY:
Info: 2963 ATOMS
Info: 2963 BONDS
Info: 21 ANGLES
Info: 35 DIHEDRALS
Info: 0 IMPROPERS
Info: 0 CROSSTERMS
Info: 3009 EXCLUSIONS
Info: 14 FIXED ATOMS
Info: 2955 RIGID BONDS
Info: 6 RIGID BONDS BETWEEN FIXED ATOMS
Info: 5898 DEGREES OF FREEDOM
Info: 991 HYDROGEN GROUPS
Info: 3 ATOMS IN LARGEST HYDROGEN GROUP
Info: 991 MIGRATION GROUPS
Info: 3 ATOMS IN LARGEST MIGRATION GROUP
Info: 8 HYDROGEN GROUPS WITH ALL ATOMS FIXED
Info: TOTAL MASS = 17815.8 amu
Info: TOTAL CHARGE = 4.42378e-09 e
Info: MASS DENSITY = 0.692082 g/cm^3
Info: ATOM DENSITY = 0.0693144 atoms/A^3
Info: ADDED 0 IMPLICIT EXCLUSIONS
Info: NONBONDED TABLE R-SQUARED SPACING: 0.0625
Info: NONBONDED TABLE SIZE: 705 POINTS
Info: REMOVING COM VELOCITY 0.0679701 0.120425 0.0891326
TCL: Running for 100000 steps
ETITLE: TS BOND ANGLE DIHED IMPRP ELECT VDW BOUNDARY MISC KINETIC TOTAL TEMP POTENTIAL TOTAL3 TEMPAVG PRESSURE GPRESSURE VOLUME PRESSAVG GPRESSAVG
ENERGY: 0 0.0000 0.0000 0.0000 0.0000 -13774.4276 2383.1250 0.0000 0.0000 1784.0887 -9607.2140 304.4402 -11391.3026 -9606.8555 304.4402 203.4321 232.5633 42747.2580 203.4321 232.5633
ENERGY: 100000 0.0000 0.0000 0.0000 0.0000 -14223.9052 2359.8705 0.0000 0.0000 180.0862 -11683.9485 30.7303 -11864.0347 -11683.5215 30.8413 -1013.3728 -961.1351 28962.0035 3.0114 3.1024
TCL: Running 100000 steps at 60 kelvin.
TCL: Setting parameter langevinTemp to 60
TCL: Running for 100000 steps
ETITLE: TS BOND ANGLE DIHED IMPRP ELECT VDW BOUNDARY MISC KINETIC TOTAL TEMP POTENTIAL TOTAL3 TEMPAVG PRESSURE GPRESSURE VOLUME PRESSAVG GPRESSAVG
ENERGY: 100000 0.0000 0.0000 0.0000 0.0000 -14223.9052 2359.8705 0.0000 0.0000 179.9966 -11684.0381 30.7150 -11864.0347 -11683.6854 30.7150 -1010.4307 -961.1544 28962.0035 -1010.4307 -961.1544
ENERGY: 200000 0.0000 0.0000 0.0000 0.0000 -14117.3029 2354.0849 0.0000 0.0000 345.5297 -11417.6882 58.9618 -11763.2180 -11416.7545 59.9296 -527.8907 -498.6523 28822.4457 5.8399 5.8193
TCL: Running 100000 steps at 90 kelvin.
TCL: Setting parameter langevinTemp to 90
TCL: Running for 100000 steps
ETITLE: TS BOND ANGLE DIHED IMPRP ELECT VDW BOUNDARY MISC KINETIC TOTAL TEMP POTENTIAL TOTAL3 TEMPAVG PRESSURE GPRESSURE VOLUME PRESSAVG GPRESSAVG
ENERGY: 200000 0.0000 0.0000 0.0000 0.0000 -14117.3029 2354.0849 0.0000 0.0000 345.3580 -11417.8600 58.9325 -11763.2180 -11417.1255 58.9325 -547.2771 -498.4354 28822.4457 -547.2771 -498.4354
ENERGY: 300000 0.0000 0.0000 0.0000 0.0000 -14035.0968 2372.8778 0.0000 0.0000 519.6188 -11142.6002 88.6687 -11662.2190 -11141.7805 89.8507 -75.2746 -42.4612 28820.1813 2.9404 2.9413
TCL: Running 100000 steps at 120 kelvin.
TCL: Setting parameter langevinTemp to 120
TCL: Running for 100000 steps
ETITLE: TS BOND ANGLE DIHED IMPRP ELECT VDW BOUNDARY MISC KINETIC TOTAL TEMP POTENTIAL TOTAL3 TEMPAVG PRESSURE GPRESSURE VOLUME PRESSAVG GPRESSAVG
ENERGY: 300000 0.0000 0.0000 0.0000 0.0000 -14035.0968 2372.8778 0.0000 0.0000 519.3514 -11142.8676 88.6231 -11662.2190 -11141.8413 88.6231 -99.2565 -42.5539 28820.1813 -99.2565 -42.5539
ENERGY: 400000 0.0000 0.0000 0.0000 0.0000 -13848.5688 2313.9623 0.0000 0.0000 702.7344 -10831.8721 119.9159 -11534.6065 -10831.3784 119.9016 -20.1108 -14.2133 28848.8201 4.2211 4.1805
TCL: Running 100000 steps at 150 kelvin.
TCL: Setting parameter langevinTemp to 150
TCL: Running for 100000 steps
ETITLE: TS BOND ANGLE DIHED IMPRP ELECT VDW BOUNDARY MISC KINETIC TOTAL TEMP POTENTIAL TOTAL3 TEMPAVG PRESSURE GPRESSURE VOLUME PRESSAVG GPRESSAVG
ENERGY: 400000 0.0000 0.0000 0.0000 0.0000 -13848.5688 2313.9623 0.0000 0.0000 702.3808 -10832.2257 119.8556 -11534.6065 -10830.5824 119.8556 -69.1482 -15.2347 28848.8201 -69.1482 -15.2347
ENERGY: 500000 0.0000 0.0000 0.0000 0.0000 -13781.5213 2393.3825 0.0000 0.0000 867.6477 -10520.4911 148.0570 -11388.1388 -10518.8652 150.0810 1139.3188 1196.2676 28525.6673 3.0440 3.1444
TCL: Running 100000 steps at 180 kelvin.
TCL: Setting parameter langevinTemp to 180
TCL: Running for 100000 steps
ETITLE: TS BOND ANGLE DIHED IMPRP ELECT VDW BOUNDARY MISC KINETIC TOTAL TEMP POTENTIAL TOTAL3 TEMPAVG PRESSURE GPRESSURE VOLUME PRESSAVG GPRESSAVG
ENERGY: 500000 0.0000 0.0000 0.0000 0.0000 -13781.5213 2393.3825 0.0000 0.0000 867.2052 -10520.9335 147.9815 -11388.1388 -10519.6483 147.9815 1135.1830 1197.7441 28525.6673 1135.1830 1197.7441
ENERGY: 600000 0.0000 0.0000 0.0000 0.0000 -13275.2715 2198.9221 0.0000 0.0000 1032.2208 -10044.1287 176.1401 -11076.3495 -10042.5051 179.8389 694.4363 748.5551 28878.7568 5.0089 4.9647
TCL: Running 100000 steps at 210 kelvin.
TCL: Setting parameter langevinTemp to 210
TCL: Running for 100000 steps
ETITLE: TS BOND ANGLE DIHED IMPRP ELECT VDW BOUNDARY MISC KINETIC TOTAL TEMP POTENTIAL TOTAL3 TEMPAVG PRESSURE GPRESSURE VOLUME PRESSAVG GPRESSAVG
ENERGY: 600000 0.0000 0.0000 0.0000 0.0000 -13275.2715 2198.9221 0.0000 0.0000 1031.7013 -10044.6482 176.0514 -11076.3495 -10043.4100 176.0514 674.5008 748.1268 28878.7568 674.5008 748.1268
ENERGY: 700000 0.0000 0.0000 0.0000 0.0000 -12632.3082 2014.7148 0.0000 0.0000 1194.2990 -9423.2945 203.7974 -10617.5934 -9420.8385 210.0026 989.1091 1110.9077 28448.1588 2.3946 2.2431
TCL: Running 100000 steps at 240 kelvin.
TCL: Setting parameter langevinTemp to 240
TCL: Running for 100000 steps
ETITLE: TS BOND ANGLE DIHED IMPRP ELECT VDW BOUNDARY MISC KINETIC TOTAL TEMP POTENTIAL TOTAL3 TEMPAVG PRESSURE GPRESSURE VOLUME PRESSAVG GPRESSAVG
ENERGY: 700000 0.0000 0.0000 0.0000 0.0000 -12632.3082 2014.7148 0.0000 0.0000 1193.6742 -9423.9192 203.6908 -10617.5934 -9422.3647 203.6908 1030.4085 1110.0698 28448.1588 1030.4085 1110.0698
ENERGY: 800000 0.0000 0.0000 0.0000 0.0000 -12001.6568 1806.3672 0.0000 0.0000 1406.9254 -8788.3643 240.0804 -10195.2897 -8785.5903 239.5906 705.6173 821.4489 29033.3447 2.9361 2.7678
TCL: Running 100000 steps at 270 kelvin.
TCL: Setting parameter langevinTemp to 270
TCL: Running for 100000 steps
ETITLE: TS BOND ANGLE DIHED IMPRP ELECT VDW BOUNDARY MISC KINETIC TOTAL TEMP POTENTIAL TOTAL3 TEMPAVG PRESSURE GPRESSURE VOLUME PRESSAVG GPRESSAVG
ENERGY: 800000 0.0000 0.0000 0.0000 0.0000 -12001.6568 1806.3672 0.0000 0.0000 1406.1772 -8789.1124 239.9527 -10195.2897 -8787.1698 239.9527 733.4906 821.2082 29033.3447 733.4906 821.2082
ENERGY: 900000 0.0000 0.0000 0.0000 0.0000 -11290.6552 1561.1403 0.0000 0.0000 1536.0658 -8193.4490 262.1172 -9729.5149 -8190.4650 269.8481 -248.2740 -153.9539 30010.6853 3.1398 3.0643
TCL: Running 1000000 steps at 300 kelvin.
TCL: Setting parameter langevinTemp to 300
TCL: Running for 1000000 steps
ETITLE: TS BOND ANGLE DIHED IMPRP ELECT VDW BOUNDARY MISC KINETIC TOTAL TEMP POTENTIAL TOTAL3 TEMPAVG PRESSURE GPRESSURE VOLUME PRESSAVG GPRESSAVG
ENERGY: 900000 0.0000 0.0000 0.0000 0.0000 -11290.6552 1561.1403 0.0000 0.0000 1535.2597 -8194.2552 261.9796 -9729.5149 -8191.6174 261.9796 -247.7102 -153.5313 30010.6853 -247.7102 -153.5313
ENERGY: 1100000 0.0000 0.0000 0.0000 0.0000 -10854.7096 1535.0852 0.0000 0.0000 1747.3677 -7572.2567 298.1741 -9319.6243 -7567.5861 300.4351 893.8149 1000.3022 30297.8394 2.7008 2.8248
ENERGY: 1300000 0.0000 0.0000 0.0000 0.0000 -10751.8806 1417.9593 0.0000 0.0000 1799.3449 -7534.5765 307.0436 -9333.9213 -7529.4789 300.4203 -424.6460 -365.7582 31370.8181 3.4408 3.3463
ENERGY: 1500000 0.0000 0.0000 0.0000 0.0000 -10860.6305 1429.6475 0.0000 0.0000 1756.1091 -7674.8738 299.6658 -9430.9829 -7672.3068 299.5653 -226.8250 -172.9761 30255.8496 2.4836 2.5424
ENERGY: 1700000 0.0000 0.0000 0.0000 0.0000 -10754.7596 1423.5403 0.0000 0.0000 1740.2425 -7590.9768 296.9582 -9331.2193 -7589.6097 300.0596 -153.6771 -114.7394 30959.5859 2.9134 2.8261
ENERGY: 1900000 0.0000 0.0000 0.0000 0.0000 -10767.1255 1407.9492 0.0000 0.0000 1758.2506 -7600.9257 300.0312 -9359.1763 -7594.8535 299.7993 -283.1718 -255.6100 30913.2794 2.8564 2.9651
TCL: Exiting due to exit command.
