Info: SIMULATION PARAMETERS:
Info: TIMESTEP               2
Info: NUMBER OF STEPS        0
Info: STEPS PER CYCLE        10
Info: PERIODIC CELL BASIS 1  36.592 0 0
Info: PERIODIC CELL BASIS 2  0 34.26 0
Info: PERIODIC CELL BASIS 3  0 0 34.68
Info: PERIODIC CELL CENTER   0 0 0
Info: WRAPPING WATERS AROUND PERIODIC BOUNDARIES ON OUTPUT.
Info: WRAPPING ALL CLUSTERS AROUND PERIODIC BOUNDARIES ON OUTPUT.
Info: FIRST LDB TIMESTEP     50
Info: LAST LDB TIMESTEP     -1
Info: HOM BACKGROUND SCALING 1
Info: PME BACKGROUND SCALING 1
Info: MIN ATOMS PER PATCH    40
Info: EMPTY PATCH LOAD       40 ATOMS
Info: INITIAL TEMPERATURE    300
Info: CENTER OF MASS MOVING INITIALLY? NO
Info: DIELECTRIC             1
Info: EXCLUDE                SCALED ONE-FOUR
Info: 1-4 ELECTROSTATICS SCALED BY 0.833333
Info: MODIFIED 1-4 VDW PARAMETERS WILL BE USED
Info: DCD FILENAME           mobley_8427539_equil.dcd
Info: DCD FREQUENCY          100000
Info: DCD FIRST STEP         100000
Info: DCD FILE WILL CONTAIN UNIT CELL DATA
Info: XST FILENAME           mobley_8427539_equil.xst
Info: XST FREQUENCY          100000
Info: NO VELOCITY DCD OUTPUT
Info: NO FORCE DCD OUTPUT
Info: OUTPUT FILENAME        mobley_8427539_equil
Info: BINARY OUTPUT FILES WILL BE USED
Info: RESTART FILENAME       mobley_8427539_equil.restart
Info: RESTART FREQUENCY      100000
Info: BINARY RESTART FILES WILL BE USED
Info: CUTOFF                 9
Info: PAIRLIST DISTANCE      11
Info: PAIRLIST SHRINK RATE   0.01
Info: PAIRLIST GROW RATE     0.01
Info: PAIRLIST TRIGGER       0.3
Info: PAIRLISTS PER CYCLE    2
Info: PAIRLISTS ENABLED
Info: MARGIN                 8
Info: HYDROGEN GROUP CUTOFF  2.5
Info: PATCH DIMENSION        21.5
Info: ENERGY OUTPUT STEPS    100000
Info: ENERGY EVALUATION STEPS    100000
Info: OUTPUT ENERGY PRECISION 4
Info: CROSSTERM ENERGY INCLUDED IN DIHEDRAL
Info: TIMING OUTPUT STEPS    1000000
Info: PRESSURE OUTPUT STEPS  100000
Info: FIXED ATOMS ACTIVE
Info: LANGEVIN DYNAMICS ACTIVE
Info: LANGEVIN TEMPERATURE   30
Info: LANGEVIN USING BBK INTEGRATOR
Info: LANGEVIN DAMPING COEFFICIENT IS 1 INVERSE PS
Info: LANGEVIN DYNAMICS APPLIED TO HYDROGENS
Info: LANGEVIN PISTON PRESSURE CONTROL ACTIVE
Info:        TARGET PRESSURE IS 1.01325 BAR
Info:     OSCILLATION PERIOD IS 50 FS
Info:             DECAY TIME IS 25 FS
Info:     PISTON TEMPERATURE IS 300 K
Info:       PRESSURE CONTROL IS GROUP-BASED
Info:    INITIAL STRAIN RATE IS 0 0 0
Info:       CELL FLUCTUATION IS ISOTROPIC
Info: PARTICLE MESH EWALD (PME) ACTIVE
Info: PME TOLERANCE               1e-06
Info: PME EWALD COEFFICIENT       0.348832
Info: PME INTERPOLATION ORDER     4
Info: PME GRID DIMENSIONS         40 36 36
Info: PME MAXIMUM GRID SPACING    1
Info: FULL ELECTROSTATIC EVALUATION FREQUENCY      2
Info: USING VERLET I (r-RESPA) MTS SCHEME.
Info: C1 SPLITTING OF LONG RANGE ELECTROSTATICS
Info: PLACING ATOMS IN PATCHES BY HYDROGEN GROUPS
Info: RIGID BONDS TO HYDROGEN : ALL
Info:         ERROR TOLERANCE : 1e-08
Info:          MAX ITERATIONS : 100
Info: RIGID WATER USING SETTLE ALGORITHM
Info: RANDOM NUMBER SEED     1743901069
Info: USE HYDROGEN BONDS?    NO
Info: Using AMBER format force field!
Info: AMBER PARM FILE        mobley_8427539.prmtop
Info: COORDINATE PDB         mobley_8427539.pdb
Info: Exclusions will be read from PARM file!
Info: SCNB (VDW SCALING)     2
Info: USING ARITHMETIC MEAN TO COMBINE L-J SIGMA PARAMETERS
Info: BINARY COORDINATES     mobley_8427539_min.coor
Info: SUMMARY OF PARAMETERS:
Info: 8 BONDS
Info: 9 ANGLES
Info:   9 HARMONIC
Info:   0 COSINE-BASED
Info: 12 DIHEDRAL
Info: 0 IMPROPER
Info: 0 CROSSTERM
Info: 0 VDW
Info: 36 VDW_PAIRS
Info: 0 NBTHOLE_PAIRS
Info: STRUCTURE SUMMARY:
Info: 2946 ATOMS
Info: 2945 BONDS
Info: 18 ANGLES
Info: 28 DIHEDRALS
Info: 0 IMPROPERS
Info: 0 CROSSTERMS
Info: 2982 EXCLUSIONS
Info: 12 FIXED ATOMS
Info: 2941 RIGID BONDS
Info: 7 RIGID BONDS BETWEEN FIXED ATOMS
Info: 5868 DEGREES OF FREEDOM
Info: 983 HYDROGEN GROUPS
Info: 4 ATOMS IN LARGEST HYDROGEN GROUP
Info: 983 MIGRATION GROUPS
Info: 4 ATOMS IN LARGEST MIGRATION GROUP
Info: 5 HYDROGEN GROUPS WITH ALL ATOMS FIXED
Info: TOTAL MASS = 17692.7 amu
Info: TOTAL CHARGE = 0.00019991 e
Info: MASS DENSITY = 0.675775 g/cm^3
Info: ATOM DENSITY = 0.0677611 atoms/A^3
Info: ADDED 0 IMPLICIT EXCLUSIONS
Info: NONBONDED TABLE R-SQUARED SPACING: 0.0625
Info: NONBONDED TABLE SIZE: 705 POINTS
Info: REMOVING COM VELOCITY -0.0694439 -0.0522846 -0.0998573
TCL: Running for 100000 steps
ETITLE: TS BOND ANGLE DIHED IMPRP ELECT VDW BOUNDARY MISC KINETIC TOTAL TEMP POTENTIAL TOTAL3 TEMPAVG PRESSURE GPRESSURE VOLUME PRESSAVG GPRESSAVG
ENERGY: 0 0.0000 0.0000 0.0000 0.0000 -13744.2239 2384.0195 0.0000 0.0000 1782.7085 -9577.4960 305.7600 -11360.2044 -9577.1405 305.7600 308.7850 332.5663 43476.3018 308.7850 332.5663
ENERGY: 100000 0.0000 0.0000 0.0000 0.0000 -14255.5311 2449.8113 0.0000 0.0000 173.8241 -11631.8957 29.8133 -11805.7198 -11631.3929 30.9361 -133.9698 -78.0181 29030.5670 4.3637 4.2922
TCL: Running 100000 steps at 60 kelvin.
TCL: Setting parameter langevinTemp to 60
TCL: Running for 100000 steps
ETITLE: TS BOND ANGLE DIHED IMPRP ELECT VDW BOUNDARY MISC KINETIC TOTAL TEMP POTENTIAL TOTAL3 TEMPAVG PRESSURE GPRESSURE VOLUME PRESSAVG GPRESSAVG
ENERGY: 100000 0.0000 0.0000 0.0000 0.0000 -14255.5311 2449.8113 0.0000 0.0000 173.7382 -11631.9816 29.7986 -11805.7198 -11631.6331 29.7986 -142.0753 -78.0540 29030.5670 -142.0753 -78.0540
ENERGY: 200000 0.0000 0.0000 0.0000 0.0000 -14199.1858 2428.5079 0.0000 0.0000 342.4689 -11428.2090 58.7383 -11770.6779 -11427.1453 59.9685 -103.2324 -19.0921 28946.6535 4.0231 3.9023
TCL: Running 100000 steps at 90 kelvin.
TCL: Setting parameter langevinTemp to 90
TCL: Running for 100000 steps
ETITLE: TS BOND ANGLE DIHED IMPRP ELECT VDW BOUNDARY MISC KINETIC TOTAL TEMP POTENTIAL TOTAL3 TEMPAVG PRESSURE GPRESSURE VOLUME PRESSAVG GPRESSAVG
ENERGY: 200000 0.0000 0.0000 0.0000 0.0000 -14199.1858 2428.5079 0.0000 0.0000 342.2909 -11428.3869 58.7078 -11770.6779 -11427.6468 58.7078 -86.3207 -19.3697 28946.6535 -86.3207 -19.3697
ENERGY: 300000 0.0000 0.0000 0.0000 0.0000 -13971.2558 2318.7090 0.0000 0.0000 540.0954 -11112.4515 92.6341 -11652.5469 -11110.7032 89.9267 -512.6618 -510.6372 29045.5100 4.2017 4.1413
TCL: Running 100000 steps at 120 kelvin.
TCL: Setting parameter langevinTemp to 120
TCL: Running for 100000 steps
ETITLE: TS BOND ANGLE DIHED IMPRP ELECT VDW BOUNDARY MISC KINETIC TOTAL TEMP POTENTIAL TOTAL3 TEMPAVG PRESSURE GPRESSURE VOLUME PRESSAVG GPRESSAVG
ENERGY: 300000 0.0000 0.0000 0.0000 0.0000 -13971.2558 2318.7090 0.0000 0.0000 539.8247 -11112.7221 92.5876 -11652.5469 -11111.5717 92.5876 -561.5304 -510.1052 29045.5100 -561.5304 -510.1052
ENERGY: 400000 0.0000 0.0000 0.0000 0.0000 -13771.7480 2253.2294 0.0000 0.0000 696.9003 -10821.6184 119.5283 -11518.5186 -10820.4531 120.2412 -383.4111 -368.7675 28773.4555 2.9592 3.0714
TCL: Running 100000 steps at 150 kelvin.
TCL: Setting parameter langevinTemp to 150
TCL: Running for 100000 steps
ETITLE: TS BOND ANGLE DIHED IMPRP ELECT VDW BOUNDARY MISC KINETIC TOTAL TEMP POTENTIAL TOTAL3 TEMPAVG PRESSURE GPRESSURE VOLUME PRESSAVG GPRESSAVG
ENERGY: 400000 0.0000 0.0000 0.0000 0.0000 -13771.7480 2253.2294 0.0000 0.0000 696.5461 -10821.9725 119.4676 -11518.5186 -10820.6997 119.4676 -403.4388 -369.0220 28773.4555 -403.4388 -369.0220
ENERGY: 500000 0.0000 0.0000 0.0000 0.0000 -13629.9686 2283.5445 0.0000 0.0000 851.5560 -10494.8681 146.0540 -11346.4241 -10493.4311 149.8458 450.7433 546.3414 28571.4514 4.2961 4.3598
TCL: Running 100000 steps at 180 kelvin.
TCL: Setting parameter langevinTemp to 180
TCL: Running for 100000 steps
ETITLE: TS BOND ANGLE DIHED IMPRP ELECT VDW BOUNDARY MISC KINETIC TOTAL TEMP POTENTIAL TOTAL3 TEMPAVG PRESSURE GPRESSURE VOLUME PRESSAVG GPRESSAVG
ENERGY: 500000 0.0000 0.0000 0.0000 0.0000 -13629.9686 2283.5445 0.0000 0.0000 851.1380 -10495.2861 145.9823 -11346.4241 -10493.7500 145.9823 485.5248 545.6208 28571.4514 485.5248 545.6208
ENERGY: 600000 0.0000 0.0000 0.0000 0.0000 -13250.4878 2155.2872 0.0000 0.0000 1020.6472 -10074.5534 175.0556 -11095.2006 -10071.9947 179.6861 253.6486 344.7966 28652.0251 3.2178 3.1780
TCL: Running 100000 steps at 210 kelvin.
TCL: Setting parameter langevinTemp to 210
TCL: Running for 100000 steps
ETITLE: TS BOND ANGLE DIHED IMPRP ELECT VDW BOUNDARY MISC KINETIC TOTAL TEMP POTENTIAL TOTAL3 TEMPAVG PRESSURE GPRESSURE VOLUME PRESSAVG GPRESSAVG
ENERGY: 600000 0.0000 0.0000 0.0000 0.0000 -13250.4878 2155.2872 0.0000 0.0000 1020.1144 -10075.0862 174.9642 -11095.2006 -10073.1268 174.9642 289.0428 343.6960 28652.0251 289.0428 343.6960
ENERGY: 700000 0.0000 0.0000 0.0000 0.0000 -12521.9955 1972.0381 0.0000 0.0000 1179.0707 -9370.8867 202.2275 -10549.9574 -9369.0636 209.9460 681.6283 732.6171 28732.2755 4.0736 4.1559
TCL: Running 100000 steps at 240 kelvin.
TCL: Setting parameter langevinTemp to 240
TCL: Running for 100000 steps
ETITLE: TS BOND ANGLE DIHED IMPRP ELECT VDW BOUNDARY MISC KINETIC TOTAL TEMP POTENTIAL TOTAL3 TEMPAVG PRESSURE GPRESSURE VOLUME PRESSAVG GPRESSAVG
ENERGY: 700000 0.0000 0.0000 0.0000 0.0000 -12521.9955 1972.0381 0.0000 0.0000 1178.4833 -9371.4741 202.1267 -10549.9574 -9369.0963 202.1267 657.6481 732.0142 28732.2755 657.6481 732.0142
ENERGY: 800000 0.0000 0.0000 0.0000 0.0000 -11829.1106 1708.4857 0.0000 0.0000 1404.4057 -8716.2192 240.8756 -10120.6249 -8712.5387 239.8808 -178.8334 -99.8625 29303.1206 2.8161 2.9730
TCL: Running 100000 steps at 270 kelvin.
TCL: Setting parameter langevinTemp to 270
TCL: Running for 100000 steps
ETITLE: TS BOND ANGLE DIHED IMPRP ELECT VDW BOUNDARY MISC KINETIC TOTAL TEMP POTENTIAL TOTAL3 TEMPAVG PRESSURE GPRESSURE VOLUME PRESSAVG GPRESSAVG
ENERGY: 800000 0.0000 0.0000 0.0000 0.0000 -11829.1106 1708.4857 0.0000 0.0000 1403.7174 -8716.9075 240.7576 -10120.6249 -8714.5886 240.7576 -182.5312 -98.2895 29303.1206 -182.5312 -98.2895
ENERGY: 900000 0.0000 0.0000 0.0000 0.0000 -11288.8887 1529.8918 0.0000 0.0000 1577.4851 -8181.5118 270.5612 -9758.9969 -8177.2306 269.5713 -385.3681 -240.3870 29551.1054 2.1327 2.1592
TCL: Running 1000000 steps at 300 kelvin.
TCL: Setting parameter langevinTemp to 300
TCL: Running for 1000000 steps
ETITLE: TS BOND ANGLE DIHED IMPRP ELECT VDW BOUNDARY MISC KINETIC TOTAL TEMP POTENTIAL TOTAL3 TEMPAVG PRESSURE GPRESSURE VOLUME PRESSAVG GPRESSAVG
ENERGY: 900000 0.0000 0.0000 0.0000 0.0000 -11288.8887 1529.8918 0.0000 0.0000 1576.6933 -8182.3036 270.4254 -9758.9969 -8180.2346 270.4254 -337.2251 -238.9765 29551.1054 -337.2251 -238.9765
ENERGY: 1100000 0.0000 0.0000 0.0000 0.0000 -10930.8263 1533.1218 0.0000 0.0000 1719.6274 -7678.0771 294.9407 -9397.7046 -7678.3175 300.5759 652.5084 737.4273 30133.4786 2.2703 2.3805
ENERGY: 1300000 0.0000 0.0000 0.0000 0.0000 -10676.8576 1385.9725 0.0000 0.0000 1752.2490 -7538.6361 300.5357 -9290.8851 -7534.4988 300.1300 -352.0410 -291.8851 30563.0478 3.7838 3.8267
ENERGY: 1500000 0.0000 0.0000 0.0000 0.0000 -10819.3211 1469.4829 0.0000 0.0000 1784.1427 -7565.6956 306.0060 -9349.8383 -7561.8363 300.5917 422.2442 523.9433 30119.2600 2.5570 2.5914
ENERGY: 1700000 0.0000 0.0000 0.0000 0.0000 -10835.1441 1460.8580 0.0000 0.0000 1759.3998 -7614.8863 301.7622 -9374.2861 -7614.6611 300.5288 420.5985 477.7034 29782.9456 2.2152 2.3151
ENERGY: 1900000 0.0000 0.0000 0.0000 0.0000 -10748.3755 1413.4607 0.0000 0.0000 1800.1445 -7534.7703 308.7505 -9334.9148 -7528.2029 299.4785 -7.8094 21.0038 30347.8717 3.3961 3.4572
TCL: Exiting due to exit command.
