Info: SIMULATION PARAMETERS:
Info: TIMESTEP               2
Info: NUMBER OF STEPS        0
Info: STEPS PER CYCLE        10
Info: PERIODIC CELL BASIS 1  39.456 0 0
Info: PERIODIC CELL BASIS 2  0 35.267 0
Info: PERIODIC CELL BASIS 3  0 0 31.349
Info: PERIODIC CELL CENTER   0 0 0
Info: WRAPPING WATERS AROUND PERIODIC BOUNDARIES ON OUTPUT.
Info: WRAPPING ALL CLUSTERS AROUND PERIODIC BOUNDARIES ON OUTPUT.
Info: FIRST LDB TIMESTEP     50
Info: LAST LDB TIMESTEP     -1
Info: HOM BACKGROUND SCALING 1
Info: PME BACKGROUND SCALING 1
Info: MIN ATOMS PER PATCH    40
Info: EMPTY PATCH LOAD       40 ATOMS
Info: INITIAL TEMPERATURE    300
Info: CENTER OF MASS MOVING INITIALLY? NO
Info: DIELECTRIC             1
Info: EXCLUDE                SCALED ONE-FOUR
Info: 1-4 ELECTROSTATICS SCALED BY 0.833333
Info: MODIFIED 1-4 VDW PARAMETERS WILL BE USED
Info: DCD FILENAME           mobley_172879_equil.dcd
Info: DCD FREQUENCY          100000
Info: DCD FIRST STEP         100000
Info: DCD FILE WILL CONTAIN UNIT CELL DATA
Info: XST FILENAME           mobley_172879_equil.xst
Info: XST FREQUENCY          100000
Info: NO VELOCITY DCD OUTPUT
Info: NO FORCE DCD OUTPUT
Info: OUTPUT FILENAME        mobley_172879_equil
Info: BINARY OUTPUT FILES WILL BE USED
Info: RESTART FILENAME       mobley_172879_equil.restart
Info: RESTART FREQUENCY      100000
Info: BINARY RESTART FILES WILL BE USED
Info: CUTOFF                 9
Info: PAIRLIST DISTANCE      11
Info: PAIRLIST SHRINK RATE   0.01
Info: PAIRLIST GROW RATE     0.01
Info: PAIRLIST TRIGGER       0.3
Info: PAIRLISTS PER CYCLE    2
Info: PAIRLISTS ENABLED
Info: MARGIN                 8
Info: HYDROGEN GROUP CUTOFF  2.5
Info: PATCH DIMENSION        21.5
Info: ENERGY OUTPUT STEPS    100000
Info: ENERGY EVALUATION STEPS    100000
Info: OUTPUT ENERGY PRECISION 4
Info: CROSSTERM ENERGY INCLUDED IN DIHEDRAL
Info: TIMING OUTPUT STEPS    1000000
Info: PRESSURE OUTPUT STEPS  100000
Info: FIXED ATOMS ACTIVE
Info: LANGEVIN DYNAMICS ACTIVE
Info: LANGEVIN TEMPERATURE   30
Info: LANGEVIN USING BBK INTEGRATOR
Info: LANGEVIN DAMPING COEFFICIENT IS 1 INVERSE PS
Info: LANGEVIN DYNAMICS APPLIED TO HYDROGENS
Info: LANGEVIN PISTON PRESSURE CONTROL ACTIVE
Info:        TARGET PRESSURE IS 1.01325 BAR
Info:     OSCILLATION PERIOD IS 50 FS
Info:             DECAY TIME IS 25 FS
Info:     PISTON TEMPERATURE IS 300 K
Info:       PRESSURE CONTROL IS GROUP-BASED
Info:    INITIAL STRAIN RATE IS 0 0 0
Info:       CELL FLUCTUATION IS ISOTROPIC
Info: PARTICLE MESH EWALD (PME) ACTIVE
Info: PME TOLERANCE               1e-06
Info: PME EWALD COEFFICIENT       0.348832
Info: PME INTERPOLATION ORDER     4
Info: PME GRID DIMENSIONS         40 36 32
Info: PME MAXIMUM GRID SPACING    1
Info: FULL ELECTROSTATIC EVALUATION FREQUENCY      2
Info: USING VERLET I (r-RESPA) MTS SCHEME.
Info: C1 SPLITTING OF LONG RANGE ELECTROSTATICS
Info: PLACING ATOMS IN PATCHES BY HYDROGEN GROUPS
Info: RIGID BONDS TO HYDROGEN : ALL
Info:         ERROR TOLERANCE : 1e-08
Info:          MAX ITERATIONS : 100
Info: RIGID WATER USING SETTLE ALGORITHM
Info: RANDOM NUMBER SEED     1743764265
Info: USE HYDROGEN BONDS?    NO
Info: Using AMBER format force field!
Info: AMBER PARM FILE        mobley_172879.prmtop
Info: COORDINATE PDB         mobley_172879.pdb
Info: Exclusions will be read from PARM file!
Info: SCNB (VDW SCALING)     2
Info: USING ARITHMETIC MEAN TO COMBINE L-J SIGMA PARAMETERS
Info: BINARY COORDINATES     mobley_172879_min.coor
Info: SUMMARY OF PARAMETERS:
Info: 5 BONDS
Info: 4 ANGLES
Info:   4 HARMONIC
Info:   0 COSINE-BASED
Info: 3 DIHEDRAL
Info: 0 IMPROPER
Info: 0 CROSSTERM
Info: 0 VDW
Info: 15 VDW_PAIRS
Info: 0 NBTHOLE_PAIRS
Info: STRUCTURE SUMMARY:
Info: 2926 ATOMS
Info: 2928 BONDS
Info: 38 ANGLES
Info: 68 DIHEDRALS
Info: 0 IMPROPERS
Info: 0 CROSSTERMS
Info: 3013 EXCLUSIONS
Info: 22 FIXED ATOMS
Info: 2912 RIGID BONDS
Info: 8 RIGID BONDS BETWEEN FIXED ATOMS
Info: 5808 DEGREES OF FREEDOM
Info: 982 HYDROGEN GROUPS
Info: 3 ATOMS IN LARGEST HYDROGEN GROUP
Info: 982 MIGRATION GROUPS
Info: 3 ATOMS IN LARGEST MIGRATION GROUP
Info: 14 HYDROGEN GROUPS WITH ALL ATOMS FIXED
Info: TOTAL MASS = 17623.7 amu
Info: TOTAL CHARGE = 2.98023e-08 e
Info: MASS DENSITY = 0.670889 g/cm^3
Info: ATOM DENSITY = 0.0670763 atoms/A^3
Info: ADDED 0 IMPLICIT EXCLUSIONS
Info: NONBONDED TABLE R-SQUARED SPACING: 0.0625
Info: NONBONDED TABLE SIZE: 705 POINTS
Info: REMOVING COM VELOCITY -0.100691 0.0296984 0.162834
TCL: Running for 100000 steps
ETITLE: TS BOND ANGLE DIHED IMPRP ELECT VDW BOUNDARY MISC KINETIC TOTAL TEMP POTENTIAL TOTAL3 TEMPAVG PRESSURE GPRESSURE VOLUME PRESSAVG GPRESSAVG
ENERGY: 0 0.0000 0.0000 0.0000 0.0000 -13565.3589 2380.8983 0.0000 0.0000 1739.6160 -9444.8445 301.4513 -11184.4606 -9444.4608 301.4513 361.3837 383.6754 43621.9690 361.3837 383.6754
ENERGY: 100000 0.0000 0.0000 0.0000 0.0000 -14271.7088 2613.2363 0.0000 0.0000 173.5992 -11484.8733 30.0823 -11658.4724 -11484.4934 30.8863 1272.4215 1330.5232 28712.3692 3.3780 3.4297
TCL: Running 100000 steps at 60 kelvin.
TCL: Setting parameter langevinTemp to 60
TCL: Running for 100000 steps
ETITLE: TS BOND ANGLE DIHED IMPRP ELECT VDW BOUNDARY MISC KINETIC TOTAL TEMP POTENTIAL TOTAL3 TEMPAVG PRESSURE GPRESSURE VOLUME PRESSAVG GPRESSAVG
ENERGY: 100000 0.0000 0.0000 0.0000 0.0000 -14271.7088 2613.2363 0.0000 0.0000 173.5080 -11484.9644 30.0665 -11658.4724 -11484.6069 30.0665 1270.1771 1330.5170 28712.3692 1270.1771 1330.5170
ENERGY: 200000 0.0000 0.0000 0.0000 0.0000 -13969.6330 2408.1159 0.0000 0.0000 352.6921 -11208.8249 61.1167 -11561.5171 -11208.1388 59.9124 -56.3730 -39.7049 28927.2983 3.7189 3.6903
TCL: Running 100000 steps at 90 kelvin.
TCL: Setting parameter langevinTemp to 90
TCL: Running for 100000 steps
ETITLE: TS BOND ANGLE DIHED IMPRP ELECT VDW BOUNDARY MISC KINETIC TOTAL TEMP POTENTIAL TOTAL3 TEMPAVG PRESSURE GPRESSURE VOLUME PRESSAVG GPRESSAVG
ENERGY: 200000 0.0000 0.0000 0.0000 0.0000 -13969.6330 2408.1159 0.0000 0.0000 352.5172 -11208.9998 61.0863 -11561.5171 -11208.1464 61.0863 -83.5970 -39.9108 28927.2983 -83.5970 -39.9108
ENERGY: 300000 0.0000 0.0000 0.0000 0.0000 -13840.1156 2366.4805 0.0000 0.0000 540.1729 -10933.4622 93.6045 -11473.6352 -10931.7796 89.8544 58.8870 107.3683 28546.0091 3.7023 3.5722
TCL: Running 100000 steps at 120 kelvin.
TCL: Setting parameter langevinTemp to 120
TCL: Running for 100000 steps
ETITLE: TS BOND ANGLE DIHED IMPRP ELECT VDW BOUNDARY MISC KINETIC TOTAL TEMP POTENTIAL TOTAL3 TEMPAVG PRESSURE GPRESSURE VOLUME PRESSAVG GPRESSAVG
ENERGY: 300000 0.0000 0.0000 0.0000 0.0000 -13840.1156 2366.4805 0.0000 0.0000 539.9265 -10933.7087 93.5618 -11473.6352 -10932.4964 93.5618 50.5342 107.4844 28546.0091 50.5342 107.4844
ENERGY: 400000 0.0000 0.0000 0.0000 0.0000 -13609.4053 2306.7738 0.0000 0.0000 698.4872 -10604.1443 121.0381 -11302.6315 -10603.3993 119.9106 106.2047 177.8446 28882.7052 4.4124 4.4809
TCL: Running 100000 steps at 150 kelvin.
TCL: Setting parameter langevinTemp to 150
TCL: Running for 100000 steps
ETITLE: TS BOND ANGLE DIHED IMPRP ELECT VDW BOUNDARY MISC KINETIC TOTAL TEMP POTENTIAL TOTAL3 TEMPAVG PRESSURE GPRESSURE VOLUME PRESSAVG GPRESSAVG
ENERGY: 400000 0.0000 0.0000 0.0000 0.0000 -13609.4053 2306.7738 0.0000 0.0000 698.1385 -10604.4930 120.9777 -11302.6315 -10603.1696 120.9777 120.4517 177.0759 28882.7052 120.4517 177.0759
ENERGY: 500000 0.0000 0.0000 0.0000 0.0000 -13429.8193 2264.8021 0.0000 0.0000 861.9564 -10303.0607 149.3651 -11165.0172 -10300.5814 150.2141 280.1947 376.4334 28721.4754 3.8760 3.8960
TCL: Running 100000 steps at 180 kelvin.
TCL: Setting parameter langevinTemp to 180
TCL: Running for 100000 steps
ETITLE: TS BOND ANGLE DIHED IMPRP ELECT VDW BOUNDARY MISC KINETIC TOTAL TEMP POTENTIAL TOTAL3 TEMPAVG PRESSURE GPRESSURE VOLUME PRESSAVG GPRESSAVG
ENERGY: 500000 0.0000 0.0000 0.0000 0.0000 -13429.8193 2264.8021 0.0000 0.0000 861.5126 -10303.5045 149.2882 -11165.0172 -10301.8589 149.2882 324.2948 376.2177 28721.4754 324.2948 376.2177
ENERGY: 600000 0.0000 0.0000 0.0000 0.0000 -12900.8942 2072.9384 0.0000 0.0000 1021.5905 -9806.3653 177.0275 -10827.9558 -9804.0619 180.1676 250.2293 293.5679 28432.5592 2.7809 2.7990
TCL: Running 100000 steps at 210 kelvin.
TCL: Setting parameter langevinTemp to 210
TCL: Running for 100000 steps
ETITLE: TS BOND ANGLE DIHED IMPRP ELECT VDW BOUNDARY MISC KINETIC TOTAL TEMP POTENTIAL TOTAL3 TEMPAVG PRESSURE GPRESSURE VOLUME PRESSAVG GPRESSAVG
ENERGY: 600000 0.0000 0.0000 0.0000 0.0000 -12900.8942 2072.9384 0.0000 0.0000 1021.0722 -9806.8836 176.9376 -10827.9558 -9804.8650 176.9376 220.7844 293.1783 28432.5592 220.7844 293.1783
ENERGY: 700000 0.0000 0.0000 0.0000 0.0000 -12227.4276 1765.1603 0.0000 0.0000 1225.6086 -9236.6587 212.3810 -10462.2673 -9233.0282 209.8115 -959.7139 -910.5165 28657.5902 4.4305 4.2495
TCL: Running 100000 steps at 240 kelvin.
TCL: Setting parameter langevinTemp to 240
TCL: Running for 100000 steps
ETITLE: TS BOND ANGLE DIHED IMPRP ELECT VDW BOUNDARY MISC KINETIC TOTAL TEMP POTENTIAL TOTAL3 TEMPAVG PRESSURE GPRESSURE VOLUME PRESSAVG GPRESSAVG
ENERGY: 700000 0.0000 0.0000 0.0000 0.0000 -12227.4276 1765.1603 0.0000 0.0000 1225.0181 -9237.2492 212.2786 -10462.2673 -9234.6049 212.2786 -987.3361 -910.5222 28657.5902 -987.3361 -910.5222
ENERGY: 800000 0.0000 0.0000 0.0000 0.0000 -11734.8343 1677.4290 0.0000 0.0000 1385.7567 -8671.6486 240.1324 -10057.4053 -8668.3771 239.9932 -431.5290 -340.9011 28969.0559 2.4767 2.5075
TCL: Running 100000 steps at 270 kelvin.
TCL: Setting parameter langevinTemp to 270
TCL: Running for 100000 steps
ETITLE: TS BOND ANGLE DIHED IMPRP ELECT VDW BOUNDARY MISC KINETIC TOTAL TEMP POTENTIAL TOTAL3 TEMPAVG PRESSURE GPRESSURE VOLUME PRESSAVG GPRESSAVG
ENERGY: 800000 0.0000 0.0000 0.0000 0.0000 -11734.8343 1677.4290 0.0000 0.0000 1385.0462 -8672.3591 240.0093 -10057.4053 -8669.9645 240.0093 -424.8245 -340.6302 28969.0559 -424.8245 -340.6302
ENERGY: 900000 0.0000 0.0000 0.0000 0.0000 -11205.6862 1516.6100 0.0000 0.0000 1591.9030 -8097.1733 275.8547 -9689.0763 -8093.3854 269.7957 -262.6121 -214.4484 29000.2500 2.6771 2.5649
TCL: Running 1000000 steps at 300 kelvin.
TCL: Setting parameter langevinTemp to 300
TCL: Running for 1000000 steps
ETITLE: TS BOND ANGLE DIHED IMPRP ELECT VDW BOUNDARY MISC KINETIC TOTAL TEMP POTENTIAL TOTAL3 TEMPAVG PRESSURE GPRESSURE VOLUME PRESSAVG GPRESSAVG
ENERGY: 900000 0.0000 0.0000 0.0000 0.0000 -11205.6862 1516.6100 0.0000 0.0000 1591.1153 -8097.9610 275.7182 -9689.0763 -8094.9427 275.7182 -313.0011 -214.4477 29000.2500 -313.0011 -214.4477
ENERGY: 1100000 0.0000 0.0000 0.0000 0.0000 -10578.4744 1375.8464 0.0000 0.0000 1776.4046 -7426.2234 307.8263 -9202.6280 -7422.6550 300.6571 -274.7716 -210.8817 30039.1210 4.8100 4.6886
ENERGY: 1300000 0.0000 0.0000 0.0000 0.0000 -10795.4711 1580.0428 0.0000 0.0000 1659.7956 -7555.6327 287.6195 -9215.4283 -7552.1856 300.1715 1273.6805 1363.1411 29778.7102 2.5522 2.4553
ENERGY: 1500000 0.0000 0.0000 0.0000 0.0000 -10629.6973 1405.6088 0.0000 0.0000 1729.6211 -7494.4675 299.7193 -9224.0885 -7492.8436 299.8471 -255.3752 -151.3530 30229.3932 4.4014 4.2282
ENERGY: 1700000 0.0000 0.0000 0.0000 0.0000 -10580.0859 1352.8858 0.0000 0.0000 1711.2514 -7515.9486 296.5361 -9227.2001 -7513.2005 300.3793 -551.2790 -466.0265 29927.6929 3.0043 3.0149
ENERGY: 1900000 0.0000 0.0000 0.0000 0.0000 -10515.3384 1381.8564 0.0000 0.0000 1726.5393 -7406.9427 299.1853 -9133.4820 -7401.7410 300.8847 42.6936 62.4478 29910.8689 2.5389 2.2979
TCL: Exiting due to exit command.
