Info: SIMULATION PARAMETERS:
Info: TIMESTEP               2
Info: NUMBER OF STEPS        0
Info: STEPS PER CYCLE        10
Info: PERIODIC CELL BASIS 1  36.005 0 0
Info: PERIODIC CELL BASIS 2  0 34.26 0
Info: PERIODIC CELL BASIS 3  0 0 35.566
Info: PERIODIC CELL CENTER   0 0 0
Info: WRAPPING WATERS AROUND PERIODIC BOUNDARIES ON OUTPUT.
Info: WRAPPING ALL CLUSTERS AROUND PERIODIC BOUNDARIES ON OUTPUT.
Info: FIRST LDB TIMESTEP     50
Info: LAST LDB TIMESTEP     -1
Info: HOM BACKGROUND SCALING 1
Info: PME BACKGROUND SCALING 1
Info: MIN ATOMS PER PATCH    40
Info: EMPTY PATCH LOAD       40 ATOMS
Info: INITIAL TEMPERATURE    300
Info: CENTER OF MASS MOVING INITIALLY? NO
Info: DIELECTRIC             1
Info: EXCLUDE                SCALED ONE-FOUR
Info: 1-4 ELECTROSTATICS SCALED BY 0.833333
Info: MODIFIED 1-4 VDW PARAMETERS WILL BE USED
Info: DCD FILENAME           mobley_4639255_equil.dcd
Info: DCD FREQUENCY          100000
Info: DCD FIRST STEP         100000
Info: DCD FILE WILL CONTAIN UNIT CELL DATA
Info: XST FILENAME           mobley_4639255_equil.xst
Info: XST FREQUENCY          100000
Info: NO VELOCITY DCD OUTPUT
Info: NO FORCE DCD OUTPUT
Info: OUTPUT FILENAME        mobley_4639255_equil
Info: BINARY OUTPUT FILES WILL BE USED
Info: RESTART FILENAME       mobley_4639255_equil.restart
Info: RESTART FREQUENCY      100000
Info: BINARY RESTART FILES WILL BE USED
Info: CUTOFF                 9
Info: PAIRLIST DISTANCE      11
Info: PAIRLIST SHRINK RATE   0.01
Info: PAIRLIST GROW RATE     0.01
Info: PAIRLIST TRIGGER       0.3
Info: PAIRLISTS PER CYCLE    2
Info: PAIRLISTS ENABLED
Info: MARGIN                 8
Info: HYDROGEN GROUP CUTOFF  2.5
Info: PATCH DIMENSION        21.5
Info: ENERGY OUTPUT STEPS    100000
Info: ENERGY EVALUATION STEPS    100000
Info: OUTPUT ENERGY PRECISION 4
Info: CROSSTERM ENERGY INCLUDED IN DIHEDRAL
Info: TIMING OUTPUT STEPS    1000000
Info: PRESSURE OUTPUT STEPS  100000
Info: FIXED ATOMS ACTIVE
Info: LANGEVIN DYNAMICS ACTIVE
Info: LANGEVIN TEMPERATURE   30
Info: LANGEVIN USING BBK INTEGRATOR
Info: LANGEVIN DAMPING COEFFICIENT IS 1 INVERSE PS
Info: LANGEVIN DYNAMICS APPLIED TO HYDROGENS
Info: LANGEVIN PISTON PRESSURE CONTROL ACTIVE
Info:        TARGET PRESSURE IS 1.01325 BAR
Info:     OSCILLATION PERIOD IS 50 FS
Info:             DECAY TIME IS 25 FS
Info:     PISTON TEMPERATURE IS 300 K
Info:       PRESSURE CONTROL IS GROUP-BASED
Info:    INITIAL STRAIN RATE IS 0 0 0
Info:       CELL FLUCTUATION IS ISOTROPIC
Info: PARTICLE MESH EWALD (PME) ACTIVE
Info: PME TOLERANCE               1e-06
Info: PME EWALD COEFFICIENT       0.348832
Info: PME INTERPOLATION ORDER     4
Info: PME GRID DIMENSIONS         40 36 36
Info: PME MAXIMUM GRID SPACING    1
Info: FULL ELECTROSTATIC EVALUATION FREQUENCY      2
Info: USING VERLET I (r-RESPA) MTS SCHEME.
Info: C1 SPLITTING OF LONG RANGE ELECTROSTATICS
Info: PLACING ATOMS IN PATCHES BY HYDROGEN GROUPS
Info: RIGID BONDS TO HYDROGEN : ALL
Info:         ERROR TOLERANCE : 1e-08
Info:          MAX ITERATIONS : 100
Info: RIGID WATER USING SETTLE ALGORITHM
Info: RANDOM NUMBER SEED     1743900603
Info: USE HYDROGEN BONDS?    NO
Info: Using AMBER format force field!
Info: AMBER PARM FILE        mobley_4639255.prmtop
Info: COORDINATE PDB         mobley_4639255.pdb
Info: Exclusions will be read from PARM file!
Info: SCNB (VDW SCALING)     2
Info: USING ARITHMETIC MEAN TO COMBINE L-J SIGMA PARAMETERS
Info: BINARY COORDINATES     mobley_4639255_min.coor
Info: SUMMARY OF PARAMETERS:
Info: 6 BONDS
Info: 5 ANGLES
Info:   5 HARMONIC
Info:   0 COSINE-BASED
Info: 7 DIHEDRAL
Info: 0 IMPROPER
Info: 0 CROSSTERM
Info: 0 VDW
Info: 15 VDW_PAIRS
Info: 0 NBTHOLE_PAIRS
Info: STRUCTURE SUMMARY:
Info: 2926 ATOMS
Info: 2925 BONDS
Info: 14 ANGLES
Info: 22 DIHEDRALS
Info: 0 IMPROPERS
Info: 0 CROSSTERMS
Info: 2954 EXCLUSIONS
Info: 10 FIXED ATOMS
Info: 2922 RIGID BONDS
Info: 6 RIGID BONDS BETWEEN FIXED ATOMS
Info: 5832 DEGREES OF FREEDOM
Info: 976 HYDROGEN GROUPS
Info: 3 ATOMS IN LARGEST HYDROGEN GROUP
Info: 976 MIGRATION GROUPS
Info: 3 ATOMS IN LARGEST MIGRATION GROUP
Info: 4 HYDROGEN GROUPS WITH ALL ATOMS FIXED
Info: TOTAL MASS = 17573.6 amu
Info: TOTAL CHARGE = -0.000199959 e
Info: MASS DENSITY = 0.665174 g/cm^3
Info: ATOM DENSITY = 0.0666944 atoms/A^3
Info: ADDED 0 IMPLICIT EXCLUSIONS
Info: NONBONDED TABLE R-SQUARED SPACING: 0.0625
Info: NONBONDED TABLE SIZE: 705 POINTS
Info: REMOVING COM VELOCITY 0.0097909 -0.0654966 -0.0158568
TCL: Running for 100000 steps
ETITLE: TS BOND ANGLE DIHED IMPRP ELECT VDW BOUNDARY MISC KINETIC TOTAL TEMP POTENTIAL TOTAL3 TEMPAVG PRESSURE GPRESSURE VOLUME PRESSAVG GPRESSAVG
ENERGY: 0 0.0000 0.0000 0.0000 0.0000 -13638.6905 2386.3267 0.0000 0.0000 1720.7837 -9531.5800 296.9608 -11252.3638 -9531.2701 296.9608 427.8764 455.2841 43871.7742 427.8764 455.2841
ENERGY: 100000 0.0000 0.0000 0.0000 0.0000 -14411.7297 2651.9255 0.0000 0.0000 176.1703 -11583.6339 30.4022 -11759.8042 -11583.0798 31.0004 1331.9097 1382.7409 28704.9987 3.3552 3.3590
TCL: Running 100000 steps at 60 kelvin.
TCL: Setting parameter langevinTemp to 60
TCL: Running for 100000 steps
ETITLE: TS BOND ANGLE DIHED IMPRP ELECT VDW BOUNDARY MISC KINETIC TOTAL TEMP POTENTIAL TOTAL3 TEMPAVG PRESSURE GPRESSURE VOLUME PRESSAVG GPRESSAVG
ENERGY: 100000 0.0000 0.0000 0.0000 0.0000 -14411.7297 2651.9255 0.0000 0.0000 176.0812 -11583.7231 30.3869 -11759.8042 -11583.4043 30.3869 1327.7590 1382.8711 28704.9987 1327.7590 1382.8711
ENERGY: 200000 0.0000 0.0000 0.0000 0.0000 -14188.7372 2519.9046 0.0000 0.0000 336.0139 -11332.8187 57.9869 -11668.8326 -11331.2972 60.0175 666.6560 703.7318 28969.0496 4.0630 4.0978
TCL: Running 100000 steps at 90 kelvin.
TCL: Setting parameter langevinTemp to 90
TCL: Running for 100000 steps
ETITLE: TS BOND ANGLE DIHED IMPRP ELECT VDW BOUNDARY MISC KINETIC TOTAL TEMP POTENTIAL TOTAL3 TEMPAVG PRESSURE GPRESSURE VOLUME PRESSAVG GPRESSAVG
ENERGY: 200000 0.0000 0.0000 0.0000 0.0000 -14188.7372 2519.9046 0.0000 0.0000 335.8381 -11332.9945 57.9566 -11668.8326 -11332.2495 57.9566 648.5516 703.9641 28969.0496 648.5516 703.9641
ENERGY: 300000 0.0000 0.0000 0.0000 0.0000 -13836.6598 2304.0866 0.0000 0.0000 506.7370 -11025.8362 87.4491 -11532.5732 -11024.2182 89.7432 -710.9548 -644.3161 29122.9252 4.0900 4.0668
TCL: Running 100000 steps at 120 kelvin.
TCL: Setting parameter langevinTemp to 120
TCL: Running for 100000 steps
ETITLE: TS BOND ANGLE DIHED IMPRP ELECT VDW BOUNDARY MISC KINETIC TOTAL TEMP POTENTIAL TOTAL3 TEMPAVG PRESSURE GPRESSURE VOLUME PRESSAVG GPRESSAVG
ENERGY: 300000 0.0000 0.0000 0.0000 0.0000 -13836.6598 2304.0866 0.0000 0.0000 506.4856 -11026.0876 87.4057 -11532.5732 -11024.9595 87.4057 -702.9191 -643.6278 29122.9252 -702.9191 -643.6278
ENERGY: 400000 0.0000 0.0000 0.0000 0.0000 -13733.8190 2316.8959 0.0000 0.0000 701.6381 -10715.2850 121.0838 -11416.9231 -10713.7736 119.8272 30.0414 61.1566 28737.8558 2.6401 2.7083
TCL: Running 100000 steps at 150 kelvin.
TCL: Setting parameter langevinTemp to 150
TCL: Running for 100000 steps
ETITLE: TS BOND ANGLE DIHED IMPRP ELECT VDW BOUNDARY MISC KINETIC TOTAL TEMP POTENTIAL TOTAL3 TEMPAVG PRESSURE GPRESSURE VOLUME PRESSAVG GPRESSAVG
ENERGY: 400000 0.0000 0.0000 0.0000 0.0000 -13733.8190 2316.8959 0.0000 0.0000 701.2930 -10715.6301 121.0242 -11416.9231 -10714.4552 121.0242 19.5425 61.8704 28737.8558 19.5425 61.8704
ENERGY: 500000 0.0000 0.0000 0.0000 0.0000 -13609.6878 2321.9868 0.0000 0.0000 870.4956 -10417.2054 150.2240 -11287.7010 -10415.8010 149.6950 648.3059 673.5199 28515.9755 4.3831 4.3395
TCL: Running 100000 steps at 180 kelvin.
TCL: Setting parameter langevinTemp to 180
TCL: Running for 100000 steps
ETITLE: TS BOND ANGLE DIHED IMPRP ELECT VDW BOUNDARY MISC KINETIC TOTAL TEMP POTENTIAL TOTAL3 TEMPAVG PRESSURE GPRESSURE VOLUME PRESSAVG GPRESSAVG
ENERGY: 500000 0.0000 0.0000 0.0000 0.0000 -13609.6878 2321.9868 0.0000 0.0000 870.0601 -10417.6409 150.1489 -11287.7010 -10416.0369 150.1489 613.7652 672.8961 28515.9755 613.7652 672.8961
ENERGY: 600000 0.0000 0.0000 0.0000 0.0000 -13148.9968 2130.4648 0.0000 0.0000 1082.6945 -9935.8375 186.8438 -11018.5319 -9933.1687 180.4456 128.2124 192.9194 28542.2841 4.9999 5.0567
TCL: Running 100000 steps at 210 kelvin.
TCL: Setting parameter langevinTemp to 210
TCL: Running for 100000 steps
ETITLE: TS BOND ANGLE DIHED IMPRP ELECT VDW BOUNDARY MISC KINETIC TOTAL TEMP POTENTIAL TOTAL3 TEMPAVG PRESSURE GPRESSURE VOLUME PRESSAVG GPRESSAVG
ENERGY: 600000 0.0000 0.0000 0.0000 0.0000 -13148.9968 2130.4648 0.0000 0.0000 1082.1687 -9936.3633 186.7531 -11018.5319 -9934.2670 186.7531 115.7919 192.4173 28542.2841 115.7919 192.4173
ENERGY: 700000 0.0000 0.0000 0.0000 0.0000 -12294.1805 1799.9350 0.0000 0.0000 1187.8351 -9306.4103 204.9883 -10494.2455 -9303.5326 209.9502 -658.7718 -563.3505 28556.0613 3.2497 3.2100
TCL: Running 100000 steps at 240 kelvin.
TCL: Setting parameter langevinTemp to 240
TCL: Running for 100000 steps
ETITLE: TS BOND ANGLE DIHED IMPRP ELECT VDW BOUNDARY MISC KINETIC TOTAL TEMP POTENTIAL TOTAL3 TEMPAVG PRESSURE GPRESSURE VOLUME PRESSAVG GPRESSAVG
ENERGY: 700000 0.0000 0.0000 0.0000 0.0000 -12294.1805 1799.9350 0.0000 0.0000 1187.2194 -9307.0260 204.8820 -10494.2455 -9304.9765 204.8820 -633.7073 -564.5736 28556.0613 -633.7073 -564.5736
ENERGY: 800000 0.0000 0.0000 0.0000 0.0000 -11773.8572 1680.8948 0.0000 0.0000 1366.5269 -8726.4355 235.8257 -10092.9624 -8722.6937 239.6921 -335.0452 -232.0504 28698.2327 3.4183 3.1579
TCL: Running 100000 steps at 270 kelvin.
TCL: Setting parameter langevinTemp to 270
TCL: Running for 100000 steps
ETITLE: TS BOND ANGLE DIHED IMPRP ELECT VDW BOUNDARY MISC KINETIC TOTAL TEMP POTENTIAL TOTAL3 TEMPAVG PRESSURE GPRESSURE VOLUME PRESSAVG GPRESSAVG
ENERGY: 800000 0.0000 0.0000 0.0000 0.0000 -11773.8572 1680.8948 0.0000 0.0000 1365.8280 -8727.1344 235.7050 -10092.9624 -8724.9341 235.7050 -307.7967 -232.0781 28698.2327 -307.7967 -232.0781
ENERGY: 900000 0.0000 0.0000 0.0000 0.0000 -11051.1319 1397.7487 0.0000 0.0000 1592.9592 -8060.4240 274.9018 -9653.3832 -8058.4616 270.0165 -1243.6053 -1199.1730 29583.4630 4.6610 4.4245
TCL: Running 1000000 steps at 300 kelvin.
TCL: Setting parameter langevinTemp to 300
TCL: Running for 1000000 steps
ETITLE: TS BOND ANGLE DIHED IMPRP ELECT VDW BOUNDARY MISC KINETIC TOTAL TEMP POTENTIAL TOTAL3 TEMPAVG PRESSURE GPRESSURE VOLUME PRESSAVG GPRESSAVG
ENERGY: 900000 0.0000 0.0000 0.0000 0.0000 -11051.1319 1397.7487 0.0000 0.0000 1592.1504 -8061.2328 274.7622 -9653.3832 -8058.5369 274.7622 -1280.6112 -1200.1641 29583.4630 -1280.6112 -1200.1641
ENERGY: 1100000 0.0000 0.0000 0.0000 0.0000 -10757.6617 1463.4421 0.0000 0.0000 1775.8538 -7518.3659 306.4644 -9294.2197 -7514.2026 300.5926 196.3559 354.0171 29984.0627 3.0772 2.9049
ENERGY: 1300000 0.0000 0.0000 0.0000 0.0000 -10809.7067 1544.3490 0.0000 0.0000 1716.7649 -7548.5929 296.2673 -9265.3577 -7545.3767 300.1323 1134.2248 1233.4382 29632.3005 2.4690 2.5042
ENERGY: 1500000 0.0000 0.0000 0.0000 0.0000 -10609.8689 1384.4622 0.0000 0.0000 1767.3909 -7458.0157 305.0040 -9225.4067 -7454.5531 299.8150 -320.7341 -255.6632 30338.0671 3.6478 3.8330
ENERGY: 1700000 0.0000 0.0000 0.0000 0.0000 -10670.2000 1428.4386 0.0000 0.0000 1745.9778 -7495.7836 301.3086 -9241.7614 -7491.7346 300.2897 185.4401 235.8552 29887.8164 2.2703 2.2138
ENERGY: 1900000 0.0000 0.0000 0.0000 0.0000 -10693.8907 1382.0943 0.0000 0.0000 1761.9071 -7549.8893 304.0576 -9311.7964 -7546.4995 300.5379 -517.0125 -446.3605 30027.7179 2.8894 2.9698
TCL: Exiting due to exit command.
