Info: SIMULATION PARAMETERS:
Info: TIMESTEP               2
Info: NUMBER OF STEPS        0
Info: STEPS PER CYCLE        10
Info: PERIODIC CELL BASIS 1  36.005 0 0
Info: PERIODIC CELL BASIS 2  0 35.411 0
Info: PERIODIC CELL BASIS 3  0 0 34.471
Info: PERIODIC CELL CENTER   0 0 0
Info: WRAPPING WATERS AROUND PERIODIC BOUNDARIES ON OUTPUT.
Info: WRAPPING ALL CLUSTERS AROUND PERIODIC BOUNDARIES ON OUTPUT.
Info: FIRST LDB TIMESTEP     50
Info: LAST LDB TIMESTEP     -1
Info: HOM BACKGROUND SCALING 1
Info: PME BACKGROUND SCALING 1
Info: MIN ATOMS PER PATCH    40
Info: EMPTY PATCH LOAD       40 ATOMS
Info: INITIAL TEMPERATURE    300
Info: CENTER OF MASS MOVING INITIALLY? NO
Info: DIELECTRIC             1
Info: EXCLUDE                SCALED ONE-FOUR
Info: 1-4 ELECTROSTATICS SCALED BY 0.833333
Info: MODIFIED 1-4 VDW PARAMETERS WILL BE USED
Info: DCD FILENAME           mobley_1328465_equil.dcd
Info: DCD FREQUENCY          100000
Info: DCD FIRST STEP         100000
Info: DCD FILE WILL CONTAIN UNIT CELL DATA
Info: XST FILENAME           mobley_1328465_equil.xst
Info: XST FREQUENCY          100000
Info: NO VELOCITY DCD OUTPUT
Info: NO FORCE DCD OUTPUT
Info: OUTPUT FILENAME        mobley_1328465_equil
Info: BINARY OUTPUT FILES WILL BE USED
Info: RESTART FILENAME       mobley_1328465_equil.restart
Info: RESTART FREQUENCY      100000
Info: BINARY RESTART FILES WILL BE USED
Info: CUTOFF                 9
Info: PAIRLIST DISTANCE      11
Info: PAIRLIST SHRINK RATE   0.01
Info: PAIRLIST GROW RATE     0.01
Info: PAIRLIST TRIGGER       0.3
Info: PAIRLISTS PER CYCLE    2
Info: PAIRLISTS ENABLED
Info: MARGIN                 8
Info: HYDROGEN GROUP CUTOFF  2.5
Info: PATCH DIMENSION        21.5
Info: ENERGY OUTPUT STEPS    100000
Info: ENERGY EVALUATION STEPS    100000
Info: OUTPUT ENERGY PRECISION 4
Info: CROSSTERM ENERGY INCLUDED IN DIHEDRAL
Info: TIMING OUTPUT STEPS    1000000
Info: PRESSURE OUTPUT STEPS  100000
Info: FIXED ATOMS ACTIVE
Info: LANGEVIN DYNAMICS ACTIVE
Info: LANGEVIN TEMPERATURE   30
Info: LANGEVIN USING BBK INTEGRATOR
Info: LANGEVIN DAMPING COEFFICIENT IS 1 INVERSE PS
Info: LANGEVIN DYNAMICS APPLIED TO HYDROGENS
Info: LANGEVIN PISTON PRESSURE CONTROL ACTIVE
Info:        TARGET PRESSURE IS 1.01325 BAR
Info:     OSCILLATION PERIOD IS 50 FS
Info:             DECAY TIME IS 25 FS
Info:     PISTON TEMPERATURE IS 300 K
Info:       PRESSURE CONTROL IS GROUP-BASED
Info:    INITIAL STRAIN RATE IS 0 0 0
Info:       CELL FLUCTUATION IS ISOTROPIC
Info: PARTICLE MESH EWALD (PME) ACTIVE
Info: PME TOLERANCE               1e-06
Info: PME EWALD COEFFICIENT       0.348832
Info: PME INTERPOLATION ORDER     4
Info: PME GRID DIMENSIONS         40 36 36
Info: PME MAXIMUM GRID SPACING    1
Info: FULL ELECTROSTATIC EVALUATION FREQUENCY      2
Info: USING VERLET I (r-RESPA) MTS SCHEME.
Info: C1 SPLITTING OF LONG RANGE ELECTROSTATICS
Info: PLACING ATOMS IN PATCHES BY HYDROGEN GROUPS
Info: RIGID BONDS TO HYDROGEN : ALL
Info:         ERROR TOLERANCE : 1e-08
Info:          MAX ITERATIONS : 100
Info: RIGID WATER USING SETTLE ALGORITHM
Info: RANDOM NUMBER SEED     1744088158
Info: USE HYDROGEN BONDS?    NO
Info: Using AMBER format force field!
Info: AMBER PARM FILE        mobley_1328465.prmtop
Info: COORDINATE PDB         mobley_1328465.pdb
Info: Exclusions will be read from PARM file!
Info: SCNB (VDW SCALING)     2
Info: USING ARITHMETIC MEAN TO COMBINE L-J SIGMA PARAMETERS
Info: BINARY COORDINATES     mobley_1328465_min.coor
Info: SUMMARY OF PARAMETERS:
Info: 6 BONDS
Info: 7 ANGLES
Info:   7 HARMONIC
Info:   0 COSINE-BASED
Info: 4 DIHEDRAL
Info: 0 IMPROPER
Info: 0 CROSSTERM
Info: 0 VDW
Info: 21 VDW_PAIRS
Info: 0 NBTHOLE_PAIRS
Info: STRUCTURE SUMMARY:
Info: 2906 ATOMS
Info: 2905 BONDS
Info: 12 ANGLES
Info: 15 DIHEDRALS
Info: 0 IMPROPERS
Info: 0 CROSSTERMS
Info: 2926 EXCLUSIONS
Info: 8 FIXED ATOMS
Info: 2901 RIGID BONDS
Info: 3 RIGID BONDS BETWEEN FIXED ATOMS
Info: 5796 DEGREES OF FREEDOM
Info: 971 HYDROGEN GROUPS
Info: 3 ATOMS IN LARGEST HYDROGEN GROUP
Info: 971 MIGRATION GROUPS
Info: 3 ATOMS IN LARGEST MIGRATION GROUP
Info: 5 HYDROGEN GROUPS WITH ALL ATOMS FIXED
Info: TOTAL MASS = 17536.9 amu
Info: TOTAL CHARGE = -1.86265e-08 e
Info: MASS DENSITY = 0.662607 g/cm^3
Info: ATOM DENSITY = 0.0661212 atoms/A^3
Info: ADDED 0 IMPLICIT EXCLUSIONS
Info: NONBONDED TABLE R-SQUARED SPACING: 0.0625
Info: NONBONDED TABLE SIZE: 705 POINTS
Info: REMOVING COM VELOCITY -0.119613 -0.0216799 0.100298
TCL: Running for 100000 steps
ETITLE: TS BOND ANGLE DIHED IMPRP ELECT VDW BOUNDARY MISC KINETIC TOTAL TEMP POTENTIAL TOTAL3 TEMPAVG PRESSURE GPRESSURE VOLUME PRESSAVG GPRESSAVG
ENERGY: 0 0.0000 0.0000 0.0000 0.0000 -13483.1120 2400.4066 0.0000 0.0000 1746.4973 -9336.2080 303.2703 -11082.7054 -9335.8635 303.2703 660.2929 692.3563 43949.5962 660.2929 692.3563
ENERGY: 100000 0.0000 0.0000 0.0000 0.0000 -13977.0319 2373.9833 0.0000 0.0000 168.4637 -11434.5849 29.2529 -11603.0486 -11434.1183 31.0114 -556.0910 -474.2597 28288.1410 2.9928 2.9473
TCL: Running 100000 steps at 60 kelvin.
TCL: Setting parameter langevinTemp to 60
TCL: Running for 100000 steps
ETITLE: TS BOND ANGLE DIHED IMPRP ELECT VDW BOUNDARY MISC KINETIC TOTAL TEMP POTENTIAL TOTAL3 TEMPAVG PRESSURE GPRESSURE VOLUME PRESSAVG GPRESSAVG
ENERGY: 100000 0.0000 0.0000 0.0000 0.0000 -13977.0319 2373.9833 0.0000 0.0000 168.3719 -11434.6767 29.2369 -11603.0486 -11434.3026 29.2369 -528.2745 -474.2358 28288.1410 -528.2745 -474.2358
ENERGY: 200000 0.0000 0.0000 0.0000 0.0000 -13848.7847 2328.5335 0.0000 0.0000 354.5363 -11165.7150 61.5634 -11520.2513 -11164.8275 60.0812 -539.3997 -476.9034 28259.8158 4.7844 4.6687
TCL: Running 100000 steps at 90 kelvin.
TCL: Setting parameter langevinTemp to 90
TCL: Running for 100000 steps
ETITLE: TS BOND ANGLE DIHED IMPRP ELECT VDW BOUNDARY MISC KINETIC TOTAL TEMP POTENTIAL TOTAL3 TEMPAVG PRESSURE GPRESSURE VOLUME PRESSAVG GPRESSAVG
ENERGY: 200000 0.0000 0.0000 0.0000 0.0000 -13848.7847 2328.5335 0.0000 0.0000 354.3610 -11165.8903 61.5330 -11520.2513 -11165.0330 61.5330 -538.3648 -477.7534 28259.8158 -538.3648 -477.7534
ENERGY: 300000 0.0000 0.0000 0.0000 0.0000 -13771.9998 2318.2060 0.0000 0.0000 505.6921 -10948.1017 87.8108 -11453.7938 -10947.1246 90.0797 -151.2460 -76.7797 28001.7174 5.1976 5.1701
TCL: Running 100000 steps at 120 kelvin.
TCL: Setting parameter langevinTemp to 120
TCL: Running for 100000 steps
ETITLE: TS BOND ANGLE DIHED IMPRP ELECT VDW BOUNDARY MISC KINETIC TOTAL TEMP POTENTIAL TOTAL3 TEMPAVG PRESSURE GPRESSURE VOLUME PRESSAVG GPRESSAVG
ENERGY: 300000 0.0000 0.0000 0.0000 0.0000 -13771.9998 2318.2060 0.0000 0.0000 505.4312 -10948.3626 87.7656 -11453.7938 -10947.2726 87.7656 -132.1496 -77.1000 28001.7174 -132.1496 -77.1000
ENERGY: 400000 0.0000 0.0000 0.0000 0.0000 -13565.6911 2253.6515 0.0000 0.0000 694.2910 -10617.7486 120.5601 -11312.0396 -10616.4871 120.2185 -511.9970 -458.6081 28609.9973 3.5283 3.4614
TCL: Running 100000 steps at 150 kelvin.
TCL: Setting parameter langevinTemp to 150
TCL: Running for 100000 steps
ETITLE: TS BOND ANGLE DIHED IMPRP ELECT VDW BOUNDARY MISC KINETIC TOTAL TEMP POTENTIAL TOTAL3 TEMPAVG PRESSURE GPRESSURE VOLUME PRESSAVG GPRESSAVG
ENERGY: 400000 0.0000 0.0000 0.0000 0.0000 -13565.6911 2253.6515 0.0000 0.0000 693.9596 -10618.0800 120.5025 -11312.0396 -10616.6878 120.5025 -490.4592 -459.0739 28609.9973 -490.4592 -459.0739
ENERGY: 500000 0.0000 0.0000 0.0000 0.0000 -13238.8316 2097.6650 0.0000 0.0000 883.0728 -10258.0938 153.3411 -11141.1666 -10257.0163 149.7968 -1063.7272 -1002.0719 28682.5495 3.6032 3.5092
TCL: Running 100000 steps at 180 kelvin.
TCL: Setting parameter langevinTemp to 180
TCL: Running for 100000 steps
ETITLE: TS BOND ANGLE DIHED IMPRP ELECT VDW BOUNDARY MISC KINETIC TOTAL TEMP POTENTIAL TOTAL3 TEMPAVG PRESSURE GPRESSURE VOLUME PRESSAVG GPRESSAVG
ENERGY: 500000 0.0000 0.0000 0.0000 0.0000 -13238.8316 2097.6650 0.0000 0.0000 882.6474 -10258.5192 153.2672 -11141.1666 -10256.5367 153.2672 -1058.1411 -1003.3880 28682.5495 -1058.1411 -1003.3880
ENERGY: 600000 0.0000 0.0000 0.0000 0.0000 -12851.2941 2000.4847 0.0000 0.0000 1056.9714 -9793.8380 183.5377 -10850.8094 -9792.5300 179.8782 -899.4116 -789.1833 28719.0517 4.2663 4.2433
TCL: Running 100000 steps at 210 kelvin.
TCL: Setting parameter langevinTemp to 210
TCL: Running for 100000 steps
ETITLE: TS BOND ANGLE DIHED IMPRP ELECT VDW BOUNDARY MISC KINETIC TOTAL TEMP POTENTIAL TOTAL3 TEMPAVG PRESSURE GPRESSURE VOLUME PRESSAVG GPRESSAVG
ENERGY: 600000 0.0000 0.0000 0.0000 0.0000 -12851.2941 2000.4847 0.0000 0.0000 1056.4451 -9794.3643 183.4463 -10850.8094 -9792.5245 183.4463 -857.9679 -789.6664 28719.0517 -857.9679 -789.6664
ENERGY: 700000 0.0000 0.0000 0.0000 0.0000 -12266.2032 1834.2912 0.0000 0.0000 1243.9839 -9187.9281 216.0114 -10431.9120 -9183.7587 209.7908 -495.2984 -438.7222 28448.2869 3.3782 3.2569
TCL: Running 100000 steps at 240 kelvin.
TCL: Setting parameter langevinTemp to 240
TCL: Running for 100000 steps
ETITLE: TS BOND ANGLE DIHED IMPRP ELECT VDW BOUNDARY MISC KINETIC TOTAL TEMP POTENTIAL TOTAL3 TEMPAVG PRESSURE GPRESSURE VOLUME PRESSAVG GPRESSAVG
ENERGY: 700000 0.0000 0.0000 0.0000 0.0000 -12266.2032 1834.2912 0.0000 0.0000 1243.3873 -9188.5247 215.9078 -10431.9120 -9186.2384 215.9078 -515.6253 -436.1062 28448.2869 -515.6253 -436.1062
ENERGY: 800000 0.0000 0.0000 0.0000 0.0000 -11632.0131 1643.7329 0.0000 0.0000 1350.0419 -8638.2383 234.4279 -9988.2801 -8633.4726 239.8138 -634.6154 -599.0337 28906.1981 3.3120 3.4355
TCL: Running 100000 steps at 270 kelvin.
TCL: Setting parameter langevinTemp to 270
TCL: Running for 100000 steps
ETITLE: TS BOND ANGLE DIHED IMPRP ELECT VDW BOUNDARY MISC KINETIC TOTAL TEMP POTENTIAL TOTAL3 TEMPAVG PRESSURE GPRESSURE VOLUME PRESSAVG GPRESSAVG
ENERGY: 800000 0.0000 0.0000 0.0000 0.0000 -11632.0131 1643.7329 0.0000 0.0000 1349.3662 -8638.9140 234.3105 -9988.2801 -8636.0985 234.3105 -677.2299 -597.6113 28906.1981 -677.2299 -597.6113
ENERGY: 900000 0.0000 0.0000 0.0000 0.0000 -10987.5437 1470.4865 0.0000 0.0000 1523.6318 -7993.4254 264.5709 -9517.0572 -7990.4121 269.3837 -623.2024 -574.1047 29335.8442 3.2624 3.3205
TCL: Running 1000000 steps at 300 kelvin.
TCL: Setting parameter langevinTemp to 300
TCL: Running for 1000000 steps
ETITLE: TS BOND ANGLE DIHED IMPRP ELECT VDW BOUNDARY MISC KINETIC TOTAL TEMP POTENTIAL TOTAL3 TEMPAVG PRESSURE GPRESSURE VOLUME PRESSAVG GPRESSAVG
ENERGY: 900000 0.0000 0.0000 0.0000 0.0000 -10987.5437 1470.4865 0.0000 0.0000 1522.8703 -7994.1869 264.4386 -9517.0572 -7992.1663 264.4386 -676.5318 -575.8618 29335.8442 -676.5318 -575.8618
ENERGY: 1100000 0.0000 0.0000 0.0000 0.0000 -10597.2024 1419.9893 0.0000 0.0000 1772.3687 -7404.8443 307.7628 -9177.2131 -7403.0017 300.0115 58.5256 134.9135 29640.6726 2.8364 2.8845
ENERGY: 1300000 0.0000 0.0000 0.0000 0.0000 -10588.2319 1409.6474 0.0000 0.0000 1697.0519 -7481.5326 294.6844 -9178.5845 -7477.9930 299.3906 -360.4192 -290.4453 30123.0277 2.8039 2.7289
ENERGY: 1500000 0.0000 0.0000 0.0000 0.0000 -10467.5702 1346.2041 0.0000 0.0000 1721.3779 -7399.9883 298.9085 -9121.3661 -7397.2059 299.7407 -455.2654 -317.9243 29776.7734 4.3328 4.5007
ENERGY: 1700000 0.0000 0.0000 0.0000 0.0000 -10628.5443 1456.0608 0.0000 0.0000 1749.9501 -7422.5334 303.8699 -9172.4835 -7417.0229 300.2761 -26.3906 117.4759 30274.4561 1.9213 1.8176
ENERGY: 1900000 0.0000 0.0000 0.0000 0.0000 -10650.2297 1454.8623 0.0000 0.0000 1772.6652 -7422.7023 307.8142 -9195.3674 -7421.0565 299.4021 49.4448 151.1419 30003.8812 4.2071 4.2724
TCL: Exiting due to exit command.
