Info: SIMULATION PARAMETERS:
Info: TIMESTEP               2
Info: NUMBER OF STEPS        0
Info: STEPS PER CYCLE        10
Info: PERIODIC CELL BASIS 1  38.861 0 0
Info: PERIODIC CELL BASIS 2  0 35.267 0
Info: PERIODIC CELL BASIS 3  0 0 31.349
Info: PERIODIC CELL CENTER   0 0 0
Info: WRAPPING WATERS AROUND PERIODIC BOUNDARIES ON OUTPUT.
Info: WRAPPING ALL CLUSTERS AROUND PERIODIC BOUNDARIES ON OUTPUT.
Info: FIRST LDB TIMESTEP     50
Info: LAST LDB TIMESTEP     -1
Info: HOM BACKGROUND SCALING 1
Info: PME BACKGROUND SCALING 1
Info: MIN ATOMS PER PATCH    40
Info: EMPTY PATCH LOAD       40 ATOMS
Info: INITIAL TEMPERATURE    300
Info: CENTER OF MASS MOVING INITIALLY? NO
Info: DIELECTRIC             1
Info: EXCLUDE                SCALED ONE-FOUR
Info: 1-4 ELECTROSTATICS SCALED BY 0.833333
Info: MODIFIED 1-4 VDW PARAMETERS WILL BE USED
Info: DCD FILENAME           mobley_5110043_equil.dcd
Info: DCD FREQUENCY          100000
Info: DCD FIRST STEP         100000
Info: DCD FILE WILL CONTAIN UNIT CELL DATA
Info: XST FILENAME           mobley_5110043_equil.xst
Info: XST FREQUENCY          100000
Info: NO VELOCITY DCD OUTPUT
Info: NO FORCE DCD OUTPUT
Info: OUTPUT FILENAME        mobley_5110043_equil
Info: BINARY OUTPUT FILES WILL BE USED
Info: RESTART FILENAME       mobley_5110043_equil.restart
Info: RESTART FREQUENCY      100000
Info: BINARY RESTART FILES WILL BE USED
Info: CUTOFF                 9
Info: PAIRLIST DISTANCE      11
Info: PAIRLIST SHRINK RATE   0.01
Info: PAIRLIST GROW RATE     0.01
Info: PAIRLIST TRIGGER       0.3
Info: PAIRLISTS PER CYCLE    2
Info: PAIRLISTS ENABLED
Info: MARGIN                 8
Info: HYDROGEN GROUP CUTOFF  2.5
Info: PATCH DIMENSION        21.5
Info: ENERGY OUTPUT STEPS    100000
Info: ENERGY EVALUATION STEPS    100000
Info: OUTPUT ENERGY PRECISION 4
Info: CROSSTERM ENERGY INCLUDED IN DIHEDRAL
Info: TIMING OUTPUT STEPS    1000000
Info: PRESSURE OUTPUT STEPS  100000
Info: FIXED ATOMS ACTIVE
Info: LANGEVIN DYNAMICS ACTIVE
Info: LANGEVIN TEMPERATURE   30
Info: LANGEVIN USING BBK INTEGRATOR
Info: LANGEVIN DAMPING COEFFICIENT IS 1 INVERSE PS
Info: LANGEVIN DYNAMICS APPLIED TO HYDROGENS
Info: LANGEVIN PISTON PRESSURE CONTROL ACTIVE
Info:        TARGET PRESSURE IS 1.01325 BAR
Info:     OSCILLATION PERIOD IS 50 FS
Info:             DECAY TIME IS 25 FS
Info:     PISTON TEMPERATURE IS 300 K
Info:       PRESSURE CONTROL IS GROUP-BASED
Info:    INITIAL STRAIN RATE IS 0 0 0
Info:       CELL FLUCTUATION IS ISOTROPIC
Info: PARTICLE MESH EWALD (PME) ACTIVE
Info: PME TOLERANCE               1e-06
Info: PME EWALD COEFFICIENT       0.348832
Info: PME INTERPOLATION ORDER     4
Info: PME GRID DIMENSIONS         40 36 32
Info: PME MAXIMUM GRID SPACING    1
Info: FULL ELECTROSTATIC EVALUATION FREQUENCY      2
Info: USING VERLET I (r-RESPA) MTS SCHEME.
Info: C1 SPLITTING OF LONG RANGE ELECTROSTATICS
Info: PLACING ATOMS IN PATCHES BY HYDROGEN GROUPS
Info: RIGID BONDS TO HYDROGEN : ALL
Info:         ERROR TOLERANCE : 1e-08
Info:          MAX ITERATIONS : 100
Info: RIGID WATER USING SETTLE ALGORITHM
Info: RANDOM NUMBER SEED     1743764998
Info: USE HYDROGEN BONDS?    NO
Info: Using AMBER format force field!
Info: AMBER PARM FILE        mobley_5110043.prmtop
Info: COORDINATE PDB         mobley_5110043.pdb
Info: Exclusions will be read from PARM file!
Info: SCNB (VDW SCALING)     2
Info: USING ARITHMETIC MEAN TO COMBINE L-J SIGMA PARAMETERS
Info: BINARY COORDINATES     mobley_5110043_min.coor
Info: SUMMARY OF PARAMETERS:
Info: 6 BONDS
Info: 5 ANGLES
Info:   5 HARMONIC
Info:   0 COSINE-BASED
Info: 3 DIHEDRAL
Info: 0 IMPROPER
Info: 0 CROSSTERM
Info: 0 VDW
Info: 21 VDW_PAIRS
Info: 0 NBTHOLE_PAIRS
Info: STRUCTURE SUMMARY:
Info: 2925 ATOMS
Info: 2926 BONDS
Info: 42 ANGLES
Info: 66 DIHEDRALS
Info: 0 IMPROPERS
Info: 0 CROSSTERMS
Info: 3018 EXCLUSIONS
Info: 24 FIXED ATOMS
Info: 2913 RIGID BONDS
Info: 12 RIGID BONDS BETWEEN FIXED ATOMS
Info: 5802 DEGREES OF FREEDOM
Info: 979 HYDROGEN GROUPS
Info: 4 ATOMS IN LARGEST HYDROGEN GROUP
Info: 979 MIGRATION GROUPS
Info: 4 ATOMS IN LARGEST MIGRATION GROUP
Info: 12 HYDROGEN GROUPS WITH ALL ATOMS FIXED
Info: TOTAL MASS = 17577.7 amu
Info: TOTAL CHARGE = -9.99793e-05 e
Info: MASS DENSITY = 0.679383 g/cm^3
Info: ATOM DENSITY = 0.06808 atoms/A^3
Info: ADDED 0 IMPLICIT EXCLUSIONS
Info: NONBONDED TABLE R-SQUARED SPACING: 0.0625
Info: NONBONDED TABLE SIZE: 705 POINTS
Info: REMOVING COM VELOCITY 0.093896 -0.0751895 -0.0840601
TCL: Running for 100000 steps
ETITLE: TS BOND ANGLE DIHED IMPRP ELECT VDW BOUNDARY MISC KINETIC TOTAL TEMP POTENTIAL TOTAL3 TEMPAVG PRESSURE GPRESSURE VOLUME PRESSAVG GPRESSAVG
ENERGY: 0 0.0000 0.0000 0.0000 0.0000 -13531.0627 2361.8845 0.0000 0.0000 1747.4953 -9421.6828 303.1298 -11169.1781 -9421.3271 303.1298 281.5447 314.7077 42964.1458 281.5447 314.7077
ENERGY: 100000 0.0000 0.0000 0.0000 0.0000 -13968.7571 2348.2937 0.0000 0.0000 170.8051 -11449.6582 29.6288 -11620.4633 -11449.1446 30.9790 -921.1362 -865.9936 29144.5111 4.3519 4.3163
TCL: Running 100000 steps at 60 kelvin.
TCL: Setting parameter langevinTemp to 60
TCL: Running for 100000 steps
ETITLE: TS BOND ANGLE DIHED IMPRP ELECT VDW BOUNDARY MISC KINETIC TOTAL TEMP POTENTIAL TOTAL3 TEMPAVG PRESSURE GPRESSURE VOLUME PRESSAVG GPRESSAVG
ENERGY: 100000 0.0000 0.0000 0.0000 0.0000 -13968.7571 2348.2937 0.0000 0.0000 170.7197 -11449.7436 29.6140 -11620.4633 -11449.3387 29.6140 -916.0370 -866.1171 29144.5111 -916.0370 -866.1171
ENERGY: 200000 0.0000 0.0000 0.0000 0.0000 -14006.4084 2465.6380 0.0000 0.0000 353.1830 -11187.5874 61.2650 -11540.7704 -11186.4356 59.8983 405.9576 439.5026 28703.3092 4.3429 4.2960
TCL: Running 100000 steps at 90 kelvin.
TCL: Setting parameter langevinTemp to 90
TCL: Running for 100000 steps
ETITLE: TS BOND ANGLE DIHED IMPRP ELECT VDW BOUNDARY MISC KINETIC TOTAL TEMP POTENTIAL TOTAL3 TEMPAVG PRESSURE GPRESSURE VOLUME PRESSAVG GPRESSAVG
ENERGY: 200000 0.0000 0.0000 0.0000 0.0000 -14006.4084 2465.6380 0.0000 0.0000 353.0031 -11187.7673 61.2338 -11540.7704 -11186.9957 61.2338 393.5654 439.3813 28703.3092 393.5654 439.3813
ENERGY: 300000 0.0000 0.0000 0.0000 0.0000 -13820.1840 2357.1094 0.0000 0.0000 512.3524 -10950.7222 88.8754 -11463.0746 -10949.8769 90.0501 -49.4336 17.0255 28576.4340 4.0676 4.2276
TCL: Running 100000 steps at 120 kelvin.
TCL: Setting parameter langevinTemp to 120
TCL: Running for 100000 steps
ETITLE: TS BOND ANGLE DIHED IMPRP ELECT VDW BOUNDARY MISC KINETIC TOTAL TEMP POTENTIAL TOTAL3 TEMPAVG PRESSURE GPRESSURE VOLUME PRESSAVG GPRESSAVG
ENERGY: 300000 0.0000 0.0000 0.0000 0.0000 -13820.1840 2357.1094 0.0000 0.0000 512.0858 -10950.9889 88.8291 -11463.0746 -10949.8816 88.8291 -35.0449 16.3149 28576.4340 -35.0449 16.3149
ENERGY: 400000 0.0000 0.0000 0.0000 0.0000 -13433.6615 2139.6299 0.0000 0.0000 686.8285 -10607.2031 119.1409 -11294.0316 -10605.3801 119.9465 -1318.5430 -1272.8826 28867.2143 4.0579 4.0616
TCL: Running 100000 steps at 150 kelvin.
TCL: Setting parameter langevinTemp to 150
TCL: Running for 100000 steps
ETITLE: TS BOND ANGLE DIHED IMPRP ELECT VDW BOUNDARY MISC KINETIC TOTAL TEMP POTENTIAL TOTAL3 TEMPAVG PRESSURE GPRESSURE VOLUME PRESSAVG GPRESSAVG
ENERGY: 400000 0.0000 0.0000 0.0000 0.0000 -13433.6615 2139.6299 0.0000 0.0000 686.4713 -10607.5603 119.0790 -11294.0316 -10605.8660 119.0790 -1334.3159 -1272.5988 28867.2143 -1334.3159 -1272.5988
ENERGY: 500000 0.0000 0.0000 0.0000 0.0000 -13550.5862 2357.7883 0.0000 0.0000 858.8660 -10333.9318 148.9835 -11192.7978 -10332.1278 149.9099 1047.6325 1106.6428 28614.1997 4.7066 4.6972
TCL: Running 100000 steps at 180 kelvin.
TCL: Setting parameter langevinTemp to 180
TCL: Running for 100000 steps
ETITLE: TS BOND ANGLE DIHED IMPRP ELECT VDW BOUNDARY MISC KINETIC TOTAL TEMP POTENTIAL TOTAL3 TEMPAVG PRESSURE GPRESSURE VOLUME PRESSAVG GPRESSAVG
ENERGY: 500000 0.0000 0.0000 0.0000 0.0000 -13550.5862 2357.7883 0.0000 0.0000 858.4213 -10334.3765 148.9063 -11192.7978 -10332.4342 148.9063 1049.0913 1106.5408 28614.1997 1049.0913 1106.5408
ENERGY: 600000 0.0000 0.0000 0.0000 0.0000 -12998.4630 2092.1662 0.0000 0.0000 1052.0364 -9854.2604 182.4918 -10906.2968 -9852.3194 179.6715 187.6113 301.8414 28177.5612 4.1925 4.1600
TCL: Running 100000 steps at 210 kelvin.
TCL: Setting parameter langevinTemp to 210
TCL: Running for 100000 steps
ETITLE: TS BOND ANGLE DIHED IMPRP ELECT VDW BOUNDARY MISC KINETIC TOTAL TEMP POTENTIAL TOTAL3 TEMPAVG PRESSURE GPRESSURE VOLUME PRESSAVG GPRESSAVG
ENERGY: 600000 0.0000 0.0000 0.0000 0.0000 -12998.4630 2092.1662 0.0000 0.0000 1051.5275 -9854.7692 182.4036 -10906.2968 -9852.7949 182.4036 226.4736 300.8853 28177.5612 226.4736 300.8853
ENERGY: 700000 0.0000 0.0000 0.0000 0.0000 -12449.6334 2031.6588 0.0000 0.0000 1205.8381 -9212.1366 209.1711 -10417.9746 -9208.7827 209.9068 1363.9037 1482.0718 28351.2589 2.6057 2.6468
TCL: Running 100000 steps at 240 kelvin.
TCL: Setting parameter langevinTemp to 240
TCL: Running for 100000 steps
ETITLE: TS BOND ANGLE DIHED IMPRP ELECT VDW BOUNDARY MISC KINETIC TOTAL TEMP POTENTIAL TOTAL3 TEMPAVG PRESSURE GPRESSURE VOLUME PRESSAVG GPRESSAVG
ENERGY: 700000 0.0000 0.0000 0.0000 0.0000 -12449.6334 2031.6588 0.0000 0.0000 1205.2185 -9212.7561 209.0636 -10417.9746 -9210.2583 209.0636 1401.4108 1483.3734 28351.2589 1401.4108 1483.3734
ENERGY: 800000 0.0000 0.0000 0.0000 0.0000 -11621.4637 1656.0536 0.0000 0.0000 1399.7719 -8565.6382 242.8119 -9965.4101 -8560.6221 239.8873 -283.2867 -237.6473 29010.4972 3.8930 3.7000
TCL: Running 100000 steps at 270 kelvin.
TCL: Setting parameter langevinTemp to 270
TCL: Running for 100000 steps
ETITLE: TS BOND ANGLE DIHED IMPRP ELECT VDW BOUNDARY MISC KINETIC TOTAL TEMP POTENTIAL TOTAL3 TEMPAVG PRESSURE GPRESSURE VOLUME PRESSAVG GPRESSAVG
ENERGY: 800000 0.0000 0.0000 0.0000 0.0000 -11621.4637 1656.0536 0.0000 0.0000 1399.0601 -8566.3499 242.6884 -9965.4101 -8563.8681 242.6884 -335.7593 -235.5384 29010.4972 -335.7593 -235.5384
ENERGY: 900000 0.0000 0.0000 0.0000 0.0000 -11098.0018 1519.8025 0.0000 0.0000 1574.0141 -8004.1852 273.0369 -9578.1993 -8001.2873 270.0504 -176.2847 -61.4121 29405.2838 3.9134 3.7503
TCL: Running 1000000 steps at 300 kelvin.
TCL: Setting parameter langevinTemp to 300
TCL: Running for 1000000 steps
ETITLE: TS BOND ANGLE DIHED IMPRP ELECT VDW BOUNDARY MISC KINETIC TOTAL TEMP POTENTIAL TOTAL3 TEMPAVG PRESSURE GPRESSURE VOLUME PRESSAVG GPRESSAVG
ENERGY: 900000 0.0000 0.0000 0.0000 0.0000 -11098.0018 1519.8025 0.0000 0.0000 1573.2362 -8004.9630 272.9019 -9578.1993 -8003.1838 272.9019 -139.2222 -62.2912 29405.2838 -139.2222 -62.2912
ENERGY: 1100000 0.0000 0.0000 0.0000 0.0000 -10518.6651 1431.2663 0.0000 0.0000 1743.3731 -7344.0257 302.4148 -9087.3988 -7342.0308 300.7791 525.9999 587.5443 29814.2278 2.5520 2.6639
ENERGY: 1300000 0.0000 0.0000 0.0000 0.0000 -10603.6871 1450.3180 0.0000 0.0000 1735.7485 -7417.6206 301.0922 -9153.3691 -7415.0037 300.3452 307.6247 471.7414 30053.3872 3.2100 3.1194
ENERGY: 1500000 0.0000 0.0000 0.0000 0.0000 -10650.8422 1465.3276 0.0000 0.0000 1760.0344 -7425.4803 305.3049 -9185.5146 -7419.1976 300.3940 520.0943 547.3136 29873.1385 2.9095 3.0289
ENERGY: 1700000 0.0000 0.0000 0.0000 0.0000 -10747.8022 1509.6586 0.0000 0.0000 1707.6525 -7530.4912 296.2185 -9238.1436 -7527.1691 300.3980 494.5720 522.4973 30189.2629 5.8101 5.6569
ENERGY: 1900000 0.0000 0.0000 0.0000 0.0000 -10621.6122 1475.2377 0.0000 0.0000 1771.2149 -7375.1597 307.2444 -9146.3745 -7371.3714 300.2625 584.6581 631.4326 30095.7900 3.9708 3.9068
TCL: Exiting due to exit command.
