Info: SIMULATION PARAMETERS:
Info: TIMESTEP               2
Info: NUMBER OF STEPS        0
Info: STEPS PER CYCLE        10
Info: PERIODIC CELL BASIS 1  37.133 0 0
Info: PERIODIC CELL BASIS 2  0 34.26 0
Info: PERIODIC CELL BASIS 3  0 0 34.229
Info: PERIODIC CELL CENTER   0 0 0
Info: WRAPPING WATERS AROUND PERIODIC BOUNDARIES ON OUTPUT.
Info: WRAPPING ALL CLUSTERS AROUND PERIODIC BOUNDARIES ON OUTPUT.
Info: FIRST LDB TIMESTEP     50
Info: LAST LDB TIMESTEP     -1
Info: HOM BACKGROUND SCALING 1
Info: PME BACKGROUND SCALING 1
Info: MIN ATOMS PER PATCH    40
Info: EMPTY PATCH LOAD       40 ATOMS
Info: INITIAL TEMPERATURE    300
Info: CENTER OF MASS MOVING INITIALLY? NO
Info: DIELECTRIC             1
Info: EXCLUDE                SCALED ONE-FOUR
Info: 1-4 ELECTROSTATICS SCALED BY 0.833333
Info: MODIFIED 1-4 VDW PARAMETERS WILL BE USED
Info: DCD FILENAME           mobley_4305650_equil.dcd
Info: DCD FREQUENCY          100000
Info: DCD FIRST STEP         100000
Info: DCD FILE WILL CONTAIN UNIT CELL DATA
Info: XST FILENAME           mobley_4305650_equil.xst
Info: XST FREQUENCY          100000
Info: NO VELOCITY DCD OUTPUT
Info: NO FORCE DCD OUTPUT
Info: OUTPUT FILENAME        mobley_4305650_equil
Info: BINARY OUTPUT FILES WILL BE USED
Info: RESTART FILENAME       mobley_4305650_equil.restart
Info: RESTART FREQUENCY      100000
Info: BINARY RESTART FILES WILL BE USED
Info: CUTOFF                 9
Info: PAIRLIST DISTANCE      11
Info: PAIRLIST SHRINK RATE   0.01
Info: PAIRLIST GROW RATE     0.01
Info: PAIRLIST TRIGGER       0.3
Info: PAIRLISTS PER CYCLE    2
Info: PAIRLISTS ENABLED
Info: MARGIN                 8
Info: HYDROGEN GROUP CUTOFF  2.5
Info: PATCH DIMENSION        21.5
Info: ENERGY OUTPUT STEPS    100000
Info: ENERGY EVALUATION STEPS    100000
Info: OUTPUT ENERGY PRECISION 4
Info: CROSSTERM ENERGY INCLUDED IN DIHEDRAL
Info: TIMING OUTPUT STEPS    1000000
Info: PRESSURE OUTPUT STEPS  100000
Info: FIXED ATOMS ACTIVE
Info: LANGEVIN DYNAMICS ACTIVE
Info: LANGEVIN TEMPERATURE   30
Info: LANGEVIN USING BBK INTEGRATOR
Info: LANGEVIN DAMPING COEFFICIENT IS 1 INVERSE PS
Info: LANGEVIN DYNAMICS APPLIED TO HYDROGENS
Info: LANGEVIN PISTON PRESSURE CONTROL ACTIVE
Info:        TARGET PRESSURE IS 1.01325 BAR
Info:     OSCILLATION PERIOD IS 50 FS
Info:             DECAY TIME IS 25 FS
Info:     PISTON TEMPERATURE IS 300 K
Info:       PRESSURE CONTROL IS GROUP-BASED
Info:    INITIAL STRAIN RATE IS 0 0 0
Info:       CELL FLUCTUATION IS ISOTROPIC
Info: PARTICLE MESH EWALD (PME) ACTIVE
Info: PME TOLERANCE               1e-06
Info: PME EWALD COEFFICIENT       0.348832
Info: PME INTERPOLATION ORDER     4
Info: PME GRID DIMENSIONS         40 36 36
Info: PME MAXIMUM GRID SPACING    1
Info: FULL ELECTROSTATIC EVALUATION FREQUENCY      2
Info: USING VERLET I (r-RESPA) MTS SCHEME.
Info: C1 SPLITTING OF LONG RANGE ELECTROSTATICS
Info: PLACING ATOMS IN PATCHES BY HYDROGEN GROUPS
Info: RIGID BONDS TO HYDROGEN : ALL
Info:         ERROR TOLERANCE : 1e-08
Info:          MAX ITERATIONS : 100
Info: RIGID WATER USING SETTLE ALGORITHM
Info: RANDOM NUMBER SEED     1743674655
Info: USE HYDROGEN BONDS?    NO
Info: Using AMBER format force field!
Info: AMBER PARM FILE        mobley_4305650.prmtop
Info: COORDINATE PDB         mobley_4305650.pdb
Info: Exclusions will be read from PARM file!
Info: SCNB (VDW SCALING)     2
Info: USING ARITHMETIC MEAN TO COMBINE L-J SIGMA PARAMETERS
Info: BINARY COORDINATES     mobley_4305650_min.coor
Info: SUMMARY OF PARAMETERS:
Info: 6 BONDS
Info: 5 ANGLES
Info: 3 DIHEDRAL
Info: 0 IMPROPER
Info: 0 CROSSTERM
Info: 0 VDW
Info: 21 VDW_PAIRS
Info: 0 NBTHOLE_PAIRS
Info: STRUCTURE SUMMARY:
Info: 2928 ATOMS
Info: 2927 BONDS
Info: 13 ANGLES
Info: 12 DIHEDRALS
Info: 0 IMPROPERS
Info: 0 CROSSTERMS
Info: 2952 EXCLUSIONS
Info: 9 FIXED ATOMS
Info: 2924 RIGID BONDS
Info: 5 RIGID BONDS BETWEEN FIXED ATOMS
Info: 5838 DEGREES OF FREEDOM
Info: 977 HYDROGEN GROUPS
Info: 4 ATOMS IN LARGEST HYDROGEN GROUP
Info: 977 MIGRATION GROUPS
Info: 4 ATOMS IN LARGEST MIGRATION GROUP
Info: 4 HYDROGEN GROUPS WITH ALL ATOMS FIXED
Info: TOTAL MASS = 17584.6 amu
Info: TOTAL CHARGE = -0.000200007 e
Info: MASS DENSITY = 0.670581 g/cm^3
Info: ATOM DENSITY = 0.0672403 atoms/A^3
Info: ADDED 0 IMPLICIT EXCLUSIONS
Info: NONBONDED TABLE R-SQUARED SPACING: 0.0625
Info: NONBONDED TABLE SIZE: 705 POINTS
Info: REMOVING COM VELOCITY -0.145193 -0.16836 0.0863964
TCL: Running for 100000 steps
ETITLE: TS BOND ANGLE DIHED IMPRP ELECT VDW BOUNDARY MISC KINETIC TOTAL TEMP POTENTIAL TOTAL3 TEMPAVG PRESSURE GPRESSURE VOLUME PRESSAVG GPRESSAVG
ENERGY: 0 0.0000 0.0000 0.0000 0.0000 -13565.1322 2363.7052 0.0000 0.0000 1730.8235 -9470.6036 298.3864 -11201.4270 -9470.2740 298.3864 256.4981 295.9893 43545.3322 256.4981 295.9893
ENERGY: 100000 0.0000 0.0000 0.0000 0.0000 -14057.8483 2361.6144 0.0000 0.0000 172.0215 -11524.2124 29.6558 -11696.2339 -11523.8806 30.9748 -762.1335 -702.9722 28517.5518 4.9759 4.9364
TCL: Running 100000 steps at 60 kelvin.
TCL: Setting parameter langevinTemp to 60
TCL: Running for 100000 steps
ETITLE: TS BOND ANGLE DIHED IMPRP ELECT VDW BOUNDARY MISC KINETIC TOTAL TEMP POTENTIAL TOTAL3 TEMPAVG PRESSURE GPRESSURE VOLUME PRESSAVG GPRESSAVG
ENERGY: 100000 0.0000 0.0000 0.0000 0.0000 -14057.8483 2361.6144 0.0000 0.0000 171.9319 -11524.3020 29.6403 -11696.2339 -11523.9261 29.6403 -764.6907 -703.1558 28517.5518 -764.6907 -703.1558
ENERGY: 200000 0.0000 0.0000 0.0000 0.0000 -13978.8508 2341.4064 0.0000 0.0000 350.9820 -11286.4624 60.5078 -11637.4445 -11285.6074 59.9111 -619.1046 -565.1828 28351.9494 4.4192 4.4485
TCL: Running 100000 steps at 90 kelvin.
TCL: Setting parameter langevinTemp to 90
TCL: Running for 100000 steps
ETITLE: TS BOND ANGLE DIHED IMPRP ELECT VDW BOUNDARY MISC KINETIC TOTAL TEMP POTENTIAL TOTAL3 TEMPAVG PRESSURE GPRESSURE VOLUME PRESSAVG GPRESSAVG
ENERGY: 200000 0.0000 0.0000 0.0000 0.0000 -13978.8508 2341.4064 0.0000 0.0000 350.8116 -11286.6329 60.4784 -11637.4445 -11285.7323 60.4784 -615.0137 -565.4950 28351.9494 -615.0137 -565.4950
ENERGY: 300000 0.0000 0.0000 0.0000 0.0000 -13999.3767 2483.1180 0.0000 0.0000 517.9845 -10998.2742 89.2983 -11516.2587 -10997.3471 89.9105 1216.1175 1307.5740 27970.7256 5.0203 5.0547
TCL: Running 100000 steps at 120 kelvin.
TCL: Setting parameter langevinTemp to 120
TCL: Running for 100000 steps
ETITLE: TS BOND ANGLE DIHED IMPRP ELECT VDW BOUNDARY MISC KINETIC TOTAL TEMP POTENTIAL TOTAL3 TEMPAVG PRESSURE GPRESSURE VOLUME PRESSAVG GPRESSAVG
ENERGY: 300000 0.0000 0.0000 0.0000 0.0000 -13999.3767 2483.1180 0.0000 0.0000 517.7221 -10998.5366 89.2530 -11516.2587 -10997.8897 89.2530 1251.7911 1307.3471 27970.7256 1251.7911 1307.3471
ENERGY: 400000 0.0000 0.0000 0.0000 0.0000 -13704.6551 2329.1472 0.0000 0.0000 692.9765 -10682.5314 119.4661 -11375.5079 -10680.9032 119.9328 287.8789 347.2378 28427.3996 3.7104 3.7206
TCL: Running 100000 steps at 150 kelvin.
TCL: Setting parameter langevinTemp to 150
TCL: Running for 100000 steps
ETITLE: TS BOND ANGLE DIHED IMPRP ELECT VDW BOUNDARY MISC KINETIC TOTAL TEMP POTENTIAL TOTAL3 TEMPAVG PRESSURE GPRESSURE VOLUME PRESSAVG GPRESSAVG
ENERGY: 400000 0.0000 0.0000 0.0000 0.0000 -13704.6551 2329.1472 0.0000 0.0000 692.6493 -10682.8586 119.4097 -11375.5079 -10681.3941 119.4097 279.9077 347.7531 28427.3996 279.9077 347.7531
ENERGY: 500000 0.0000 0.0000 0.0000 0.0000 -13329.3364 2107.4550 0.0000 0.0000 853.6776 -10368.2037 147.1703 -11221.8813 -10365.4682 150.1205 -898.3923 -854.7626 28380.7241 3.4896 3.5222
TCL: Running 100000 steps at 180 kelvin.
TCL: Setting parameter langevinTemp to 180
TCL: Running for 100000 steps
ETITLE: TS BOND ANGLE DIHED IMPRP ELECT VDW BOUNDARY MISC KINETIC TOTAL TEMP POTENTIAL TOTAL3 TEMPAVG PRESSURE GPRESSURE VOLUME PRESSAVG GPRESSAVG
ENERGY: 500000 0.0000 0.0000 0.0000 0.0000 -13329.3364 2107.4550 0.0000 0.0000 853.2457 -10368.6356 147.0958 -11221.8813 -10366.5123 147.0958 -893.8115 -855.1208 28380.7241 -893.8115 -855.1208
ENERGY: 600000 0.0000 0.0000 0.0000 0.0000 -13105.0854 2143.8474 0.0000 0.0000 1037.0185 -9924.2195 178.7775 -10961.2380 -9922.1320 180.0568 270.7763 331.0230 28480.6028 2.9848 3.0956
TCL: Running 100000 steps at 210 kelvin.
TCL: Setting parameter langevinTemp to 210
TCL: Running for 100000 steps
ETITLE: TS BOND ANGLE DIHED IMPRP ELECT VDW BOUNDARY MISC KINETIC TOTAL TEMP POTENTIAL TOTAL3 TEMPAVG PRESSURE GPRESSURE VOLUME PRESSAVG GPRESSAVG
ENERGY: 600000 0.0000 0.0000 0.0000 0.0000 -13105.0854 2143.8474 0.0000 0.0000 1036.5131 -9924.7250 178.6903 -10961.2380 -9922.8190 178.6903 269.8299 330.1048 28480.6028 269.8299 330.1048
ENERGY: 700000 0.0000 0.0000 0.0000 0.0000 -12288.0689 1872.8810 0.0000 0.0000 1237.5017 -9177.6862 213.3399 -10415.1879 -9175.5688 209.9728 45.7113 110.6318 28644.1761 3.4991 3.4157
TCL: Running 100000 steps at 240 kelvin.
TCL: Setting parameter langevinTemp to 240
TCL: Running for 100000 steps
ETITLE: TS BOND ANGLE DIHED IMPRP ELECT VDW BOUNDARY MISC KINETIC TOTAL TEMP POTENTIAL TOTAL3 TEMPAVG PRESSURE GPRESSURE VOLUME PRESSAVG GPRESSAVG
ENERGY: 700000 0.0000 0.0000 0.0000 0.0000 -12288.0689 1872.8810 0.0000 0.0000 1236.8919 -9178.2960 213.2348 -10415.1879 -9176.2812 213.2348 28.4510 111.0578 28644.1761 28.4510 111.0578
ENERGY: 800000 0.0000 0.0000 0.0000 0.0000 -11716.6151 1749.4785 0.0000 0.0000 1433.2507 -8533.8858 247.0862 -9967.1366 -8531.6004 239.5797 526.3262 656.5739 28897.5082 3.1895 3.0833
TCL: Running 100000 steps at 270 kelvin.
TCL: Setting parameter langevinTemp to 270
TCL: Running for 100000 steps
ETITLE: TS BOND ANGLE DIHED IMPRP ELECT VDW BOUNDARY MISC KINETIC TOTAL TEMP POTENTIAL TOTAL3 TEMPAVG PRESSURE GPRESSURE VOLUME PRESSAVG GPRESSAVG
ENERGY: 800000 0.0000 0.0000 0.0000 0.0000 -11716.6151 1749.4785 0.0000 0.0000 1432.5213 -8534.6153 246.9604 -9967.1366 -8532.2413 246.9604 577.8895 657.9856 28897.5082 577.8895 657.9856
ENERGY: 900000 0.0000 0.0000 0.0000 0.0000 -11168.2137 1549.5824 0.0000 0.0000 1598.1313 -8020.5000 275.5109 -9618.6313 -8016.0655 269.7783 -48.9789 0.7888 29529.5546 4.3441 4.3285
TCL: Running 1000000 steps at 300 kelvin.
TCL: Setting parameter langevinTemp to 300
TCL: Running for 1000000 steps
ETITLE: TS BOND ANGLE DIHED IMPRP ELECT VDW BOUNDARY MISC KINETIC TOTAL TEMP POTENTIAL TOTAL3 TEMPAVG PRESSURE GPRESSURE VOLUME PRESSAVG GPRESSAVG
ENERGY: 900000 0.0000 0.0000 0.0000 0.0000 -11168.2137 1549.5824 0.0000 0.0000 1597.3516 -8021.2797 275.3765 -9618.6313 -8019.3132 275.3765 -62.3019 1.2566 29529.5546 -62.3019 1.2566
ENERGY: 1100000 0.0000 0.0000 0.0000 0.0000 -10778.1942 1506.3045 0.0000 0.0000 1720.8674 -7551.0223 296.6700 -9271.8897 -7548.4003 300.2458 446.7685 557.5872 29940.0400 3.4079 3.0976
ENERGY: 1300000 0.0000 0.0000 0.0000 0.0000 -10710.4325 1440.7797 0.0000 0.0000 1719.3021 -7550.3508 296.4002 -9269.6529 -7545.3618 300.5071 15.3940 77.0021 30112.7602 4.3223 4.2889
ENERGY: 1500000 0.0000 0.0000 0.0000 0.0000 -10633.9889 1395.7078 0.0000 0.0000 1683.1437 -7555.1374 290.1666 -9238.2810 -7552.4040 300.3653 -440.0599 -369.7171 30217.0133 3.2769 3.2897
ENERGY: 1700000 0.0000 0.0000 0.0000 0.0000 -10641.7099 1472.1163 0.0000 0.0000 1739.7800 -7429.8136 299.9305 -9169.5936 -7427.6717 300.0261 321.8511 461.1099 30325.1428 4.4509 4.3335
ENERGY: 1900000 0.0000 0.0000 0.0000 0.0000 -10845.0140 1600.1227 0.0000 0.0000 1731.3679 -7513.5234 298.4803 -9244.8913 -7511.4146 300.2874 1031.7940 1114.8097 30227.2369 3.9406 4.0944
TCL: Exiting due to exit command.
