Info: SIMULATION PARAMETERS:
Info: TIMESTEP               2
Info: NUMBER OF STEPS        0
Info: STEPS PER CYCLE        10
Info: PERIODIC CELL BASIS 1  37.38 0 0
Info: PERIODIC CELL BASIS 2  0 36.032 0
Info: PERIODIC CELL BASIS 3  0 0 31.855
Info: PERIODIC CELL CENTER   0 0 0
Info: WRAPPING WATERS AROUND PERIODIC BOUNDARIES ON OUTPUT.
Info: WRAPPING ALL CLUSTERS AROUND PERIODIC BOUNDARIES ON OUTPUT.
Info: FIRST LDB TIMESTEP     50
Info: LAST LDB TIMESTEP     -1
Info: HOM BACKGROUND SCALING 1
Info: PME BACKGROUND SCALING 1
Info: MIN ATOMS PER PATCH    40
Info: EMPTY PATCH LOAD       40 ATOMS
Info: INITIAL TEMPERATURE    300
Info: CENTER OF MASS MOVING INITIALLY? NO
Info: DIELECTRIC             1
Info: EXCLUDE                SCALED ONE-FOUR
Info: 1-4 ELECTROSTATICS SCALED BY 0.833333
Info: MODIFIED 1-4 VDW PARAMETERS WILL BE USED
Info: DCD FILENAME           mobley_6257907_equil.dcd
Info: DCD FREQUENCY          100000
Info: DCD FIRST STEP         100000
Info: DCD FILE WILL CONTAIN UNIT CELL DATA
Info: XST FILENAME           mobley_6257907_equil.xst
Info: XST FREQUENCY          100000
Info: NO VELOCITY DCD OUTPUT
Info: NO FORCE DCD OUTPUT
Info: OUTPUT FILENAME        mobley_6257907_equil
Info: BINARY OUTPUT FILES WILL BE USED
Info: RESTART FILENAME       mobley_6257907_equil.restart
Info: RESTART FREQUENCY      100000
Info: BINARY RESTART FILES WILL BE USED
Info: CUTOFF                 9
Info: PAIRLIST DISTANCE      11
Info: PAIRLIST SHRINK RATE   0.01
Info: PAIRLIST GROW RATE     0.01
Info: PAIRLIST TRIGGER       0.3
Info: PAIRLISTS PER CYCLE    2
Info: PAIRLISTS ENABLED
Info: MARGIN                 8
Info: HYDROGEN GROUP CUTOFF  2.5
Info: PATCH DIMENSION        21.5
Info: ENERGY OUTPUT STEPS    100000
Info: ENERGY EVALUATION STEPS    100000
Info: OUTPUT ENERGY PRECISION 4
Info: CROSSTERM ENERGY INCLUDED IN DIHEDRAL
Info: TIMING OUTPUT STEPS    1000000
Info: PRESSURE OUTPUT STEPS  100000
Info: FIXED ATOMS ACTIVE
Info: LANGEVIN DYNAMICS ACTIVE
Info: LANGEVIN TEMPERATURE   30
Info: LANGEVIN USING BBK INTEGRATOR
Info: LANGEVIN DAMPING COEFFICIENT IS 1 INVERSE PS
Info: LANGEVIN DYNAMICS APPLIED TO HYDROGENS
Info: LANGEVIN PISTON PRESSURE CONTROL ACTIVE
Info:        TARGET PRESSURE IS 1.01325 BAR
Info:     OSCILLATION PERIOD IS 50 FS
Info:             DECAY TIME IS 25 FS
Info:     PISTON TEMPERATURE IS 300 K
Info:       PRESSURE CONTROL IS GROUP-BASED
Info:    INITIAL STRAIN RATE IS 0 0 0
Info:       CELL FLUCTUATION IS ISOTROPIC
Info: PARTICLE MESH EWALD (PME) ACTIVE
Info: PME TOLERANCE               1e-06
Info: PME EWALD COEFFICIENT       0.348832
Info: PME INTERPOLATION ORDER     4
Info: PME GRID DIMENSIONS         40 40 32
Info: PME MAXIMUM GRID SPACING    1
Info: FULL ELECTROSTATIC EVALUATION FREQUENCY      2
Info: USING VERLET I (r-RESPA) MTS SCHEME.
Info: C1 SPLITTING OF LONG RANGE ELECTROSTATICS
Info: PLACING ATOMS IN PATCHES BY HYDROGEN GROUPS
Info: RIGID BONDS TO HYDROGEN : ALL
Info:         ERROR TOLERANCE : 1e-08
Info:          MAX ITERATIONS : 100
Info: RIGID WATER USING SETTLE ALGORITHM
Info: RANDOM NUMBER SEED     1743731155
Info: USE HYDROGEN BONDS?    NO
Info: Using AMBER format force field!
Info: AMBER PARM FILE        mobley_6257907.prmtop
Info: COORDINATE PDB         mobley_6257907.pdb
Info: Exclusions will be read from PARM file!
Info: SCNB (VDW SCALING)     2
Info: USING ARITHMETIC MEAN TO COMBINE L-J SIGMA PARAMETERS
Info: BINARY COORDINATES     mobley_6257907_min.coor
Info: SUMMARY OF PARAMETERS:
Info: 7 BONDS
Info: 6 ANGLES
Info:   6 HARMONIC
Info:   0 COSINE-BASED
Info: 3 DIHEDRAL
Info: 0 IMPROPER
Info: 0 CROSSTERM
Info: 0 VDW
Info: 28 VDW_PAIRS
Info: 0 NBTHOLE_PAIRS
Info: STRUCTURE SUMMARY:
Info: 2903 ATOMS
Info: 2903 BONDS
Info: 21 ANGLES
Info: 35 DIHEDRALS
Info: 0 IMPROPERS
Info: 0 CROSSTERMS
Info: 2949 EXCLUSIONS
Info: 14 FIXED ATOMS
Info: 2895 RIGID BONDS
Info: 6 RIGID BONDS BETWEEN FIXED ATOMS
Info: 5778 DEGREES OF FREEDOM
Info: 971 HYDROGEN GROUPS
Info: 3 ATOMS IN LARGEST HYDROGEN GROUP
Info: 971 MIGRATION GROUPS
Info: 3 ATOMS IN LARGEST MIGRATION GROUP
Info: 8 HYDROGEN GROUPS WITH ALL ATOMS FIXED
Info: TOTAL MASS = 17477 amu
Info: TOTAL CHARGE = 0.000200048 e
Info: MASS DENSITY = 0.676426 g/cm^3
Info: ATOM DENSITY = 0.0676615 atoms/A^3
Info: ADDED 0 IMPLICIT EXCLUSIONS
Info: NONBONDED TABLE R-SQUARED SPACING: 0.0625
Info: NONBONDED TABLE SIZE: 705 POINTS
Info: REMOVING COM VELOCITY 0.0679367 0.0858043 0.0866706
TCL: Running for 100000 steps
ETITLE: TS BOND ANGLE DIHED IMPRP ELECT VDW BOUNDARY MISC KINETIC TOTAL TEMP POTENTIAL TOTAL3 TEMPAVG PRESSURE GPRESSURE VOLUME PRESSAVG GPRESSAVG
ENERGY: 0 0.0000 0.0000 0.0000 0.0000 -13504.1713 2344.3671 0.0000 0.0000 1709.3044 -9450.4998 297.7366 -11159.8042 -9450.1902 297.7366 352.4636 382.3543 42904.7401 352.4636 382.3543
ENERGY: 100000 0.0000 0.0000 0.0000 0.0000 -13983.4157 2354.5437 0.0000 0.0000 175.4588 -11453.4133 30.5624 -11628.8721 -11452.9427 30.9662 -714.4792 -640.6763 28609.9401 3.4826 3.4537
TCL: Running 100000 steps at 60 kelvin.
TCL: Setting parameter langevinTemp to 60
TCL: Running for 100000 steps
ETITLE: TS BOND ANGLE DIHED IMPRP ELECT VDW BOUNDARY MISC KINETIC TOTAL TEMP POTENTIAL TOTAL3 TEMPAVG PRESSURE GPRESSURE VOLUME PRESSAVG GPRESSAVG
ENERGY: 100000 0.0000 0.0000 0.0000 0.0000 -13983.4157 2354.5437 0.0000 0.0000 175.3720 -11453.5001 30.5473 -11628.8721 -11453.2065 30.5473 -692.5868 -640.6529 28609.9401 -692.5868 -640.6529
ENERGY: 200000 0.0000 0.0000 0.0000 0.0000 -13945.6609 2344.7227 0.0000 0.0000 344.3372 -11256.6011 59.9787 -11600.9382 -11255.3246 59.9938 -670.9385 -629.5236 28574.3691 4.7321 4.6676
TCL: Running 100000 steps at 90 kelvin.
TCL: Setting parameter langevinTemp to 90
TCL: Running for 100000 steps
ETITLE: TS BOND ANGLE DIHED IMPRP ELECT VDW BOUNDARY MISC KINETIC TOTAL TEMP POTENTIAL TOTAL3 TEMPAVG PRESSURE GPRESSURE VOLUME PRESSAVG GPRESSAVG
ENERGY: 200000 0.0000 0.0000 0.0000 0.0000 -13945.6609 2344.7227 0.0000 0.0000 344.1700 -11256.7682 59.9495 -11600.9382 -11255.8530 59.9495 -670.9043 -629.2773 28574.3691 -670.9043 -629.2773
ENERGY: 300000 0.0000 0.0000 0.0000 0.0000 -13748.3700 2273.3470 0.0000 0.0000 533.8493 -10941.1737 92.9890 -11475.0230 -10939.2951 90.0158 -847.8912 -778.2409 28605.5118 5.8286 5.7793
TCL: Running 100000 steps at 120 kelvin.
TCL: Setting parameter langevinTemp to 120
TCL: Running for 100000 steps
ETITLE: TS BOND ANGLE DIHED IMPRP ELECT VDW BOUNDARY MISC KINETIC TOTAL TEMP POTENTIAL TOTAL3 TEMPAVG PRESSURE GPRESSURE VOLUME PRESSAVG GPRESSAVG
ENERGY: 300000 0.0000 0.0000 0.0000 0.0000 -13748.3700 2273.3470 0.0000 0.0000 533.5963 -10941.4268 92.9449 -11475.0230 -10940.1199 92.9449 -821.6985 -778.0219 28605.5118 -821.6985 -778.0219
ENERGY: 400000 0.0000 0.0000 0.0000 0.0000 -13771.4721 2401.1872 0.0000 0.0000 693.8108 -10676.4741 120.8520 -11370.2849 -10674.9061 119.8689 621.8606 673.5371 28521.3888 4.4194 4.3955
TCL: Running 100000 steps at 150 kelvin.
TCL: Setting parameter langevinTemp to 150
TCL: Running for 100000 steps
ETITLE: TS BOND ANGLE DIHED IMPRP ELECT VDW BOUNDARY MISC KINETIC TOTAL TEMP POTENTIAL TOTAL3 TEMPAVG PRESSURE GPRESSURE VOLUME PRESSAVG GPRESSAVG
ENERGY: 400000 0.0000 0.0000 0.0000 0.0000 -13771.4721 2401.1872 0.0000 0.0000 693.4561 -10676.8288 120.7902 -11370.2849 -10675.3321 120.7902 623.3426 674.2623 28521.3888 623.3426 674.2623
ENERGY: 500000 0.0000 0.0000 0.0000 0.0000 -13478.2494 2313.4401 0.0000 0.0000 840.5028 -10324.3065 146.4037 -11164.8093 -10322.2768 150.0293 665.5758 756.2015 28421.2008 3.5391 3.4934
TCL: Running 100000 steps at 180 kelvin.
TCL: Setting parameter langevinTemp to 180
TCL: Running for 100000 steps
ETITLE: TS BOND ANGLE DIHED IMPRP ELECT VDW BOUNDARY MISC KINETIC TOTAL TEMP POTENTIAL TOTAL3 TEMPAVG PRESSURE GPRESSURE VOLUME PRESSAVG GPRESSAVG
ENERGY: 500000 0.0000 0.0000 0.0000 0.0000 -13478.2494 2313.4401 0.0000 0.0000 840.0781 -10324.7312 146.3297 -11164.8093 -10323.4163 146.3297 705.8346 755.7790 28421.2008 705.8346 755.7790
ENERGY: 600000 0.0000 0.0000 0.0000 0.0000 -13072.3840 2130.7358 0.0000 0.0000 1030.6679 -9910.9802 179.5278 -10941.6481 -9908.9325 179.7711 163.4526 199.8335 28621.7287 2.6594 2.7211
TCL: Running 100000 steps at 210 kelvin.
TCL: Setting parameter langevinTemp to 210
TCL: Running for 100000 steps
ETITLE: TS BOND ANGLE DIHED IMPRP ELECT VDW BOUNDARY MISC KINETIC TOTAL TEMP POTENTIAL TOTAL3 TEMPAVG PRESSURE GPRESSURE VOLUME PRESSAVG GPRESSAVG
ENERGY: 600000 0.0000 0.0000 0.0000 0.0000 -13072.3840 2130.7358 0.0000 0.0000 1030.1559 -9911.4922 179.4386 -10941.6481 -9909.8465 179.4386 149.2046 199.0038 28621.7287 149.2046 199.0038
ENERGY: 700000 0.0000 0.0000 0.0000 0.0000 -12340.0109 1894.1513 0.0000 0.0000 1242.5207 -9203.3389 216.4295 -10445.8596 -9199.9639 209.9779 188.9212 291.5090 28355.3946 3.9437 4.1310
TCL: Running 100000 steps at 240 kelvin.
TCL: Setting parameter langevinTemp to 240
TCL: Running for 100000 steps
ETITLE: TS BOND ANGLE DIHED IMPRP ELECT VDW BOUNDARY MISC KINETIC TOTAL TEMP POTENTIAL TOTAL3 TEMPAVG PRESSURE GPRESSURE VOLUME PRESSAVG GPRESSAVG
ENERGY: 700000 0.0000 0.0000 0.0000 0.0000 -12340.0109 1894.1513 0.0000 0.0000 1241.9040 -9203.9557 216.3221 -10445.8596 -9201.4376 216.3221 211.7071 291.1554 28355.3946 211.7071 291.1554
ENERGY: 800000 0.0000 0.0000 0.0000 0.0000 -11593.9867 1606.3985 0.0000 0.0000 1377.0972 -8610.4910 239.8708 -9987.5882 -8607.5211 239.5804 -710.1690 -578.9852 28811.0143 4.2258 4.0836
TCL: Running 100000 steps at 270 kelvin.
TCL: Setting parameter langevinTemp to 270
TCL: Running for 100000 steps
ETITLE: TS BOND ANGLE DIHED IMPRP ELECT VDW BOUNDARY MISC KINETIC TOTAL TEMP POTENTIAL TOTAL3 TEMPAVG PRESSURE GPRESSURE VOLUME PRESSAVG GPRESSAVG
ENERGY: 800000 0.0000 0.0000 0.0000 0.0000 -11593.9867 1606.3985 0.0000 0.0000 1376.3692 -8611.2190 239.7440 -9987.5882 -8609.0227 239.7440 -674.4491 -578.2648 28811.0143 -674.4491 -578.2648
ENERGY: 900000 0.0000 0.0000 0.0000 0.0000 -11127.3040 1524.1310 0.0000 0.0000 1558.8756 -8044.2974 271.5341 -9603.1730 -8041.2502 270.0533 -20.5298 19.8380 28910.4691 2.6677 2.8375
TCL: Running 1000000 steps at 300 kelvin.
TCL: Setting parameter langevinTemp to 300
TCL: Running for 1000000 steps
ETITLE: TS BOND ANGLE DIHED IMPRP ELECT VDW BOUNDARY MISC KINETIC TOTAL TEMP POTENTIAL TOTAL3 TEMPAVG PRESSURE GPRESSURE VOLUME PRESSAVG GPRESSAVG
ENERGY: 900000 0.0000 0.0000 0.0000 0.0000 -11127.3040 1524.1310 0.0000 0.0000 1558.0812 -8045.0918 271.3957 -9603.1730 -8042.2650 271.3957 -52.9996 18.8827 28910.4691 -52.9996 18.8827
ENERGY: 1100000 0.0000 0.0000 0.0000 0.0000 -10612.4386 1407.2221 0.0000 0.0000 1690.5700 -7514.6465 294.4733 -9205.2165 -7511.5143 300.0289 -56.6216 8.8117 29888.2775 3.0923 3.0938
ENERGY: 1300000 0.0000 0.0000 0.0000 0.0000 -10586.0906 1419.0748 0.0000 0.0000 1728.7095 -7438.3063 301.1167 -9167.0159 -7436.5845 300.0054 148.8706 222.4770 30048.8214 3.4773 3.7328
ENERGY: 1500000 0.0000 0.0000 0.0000 0.0000 -10562.2922 1336.8632 0.0000 0.0000 1716.4136 -7509.0154 298.9749 -9225.4290 -7506.2556 300.3738 -828.7475 -802.4949 30381.6774 4.4805 4.4703
ENERGY: 1700000 0.0000 0.0000 0.0000 0.0000 -10546.9028 1308.1708 0.0000 0.0000 1645.9479 -7592.7841 286.7008 -9238.7320 -7589.3318 300.3398 -985.3993 -939.7370 29993.1501 4.1086 3.8367
ENERGY: 1900000 0.0000 0.0000 0.0000 0.0000 -10394.5482 1263.8270 0.0000 0.0000 1692.3911 -7438.3300 294.7906 -9130.7212 -7433.4376 301.3639 -1230.8331 -1122.0242 30405.3778 4.4875 4.5230
TCL: Exiting due to exit command.
