Info: SIMULATION PARAMETERS:
Info: TIMESTEP               2
Info: NUMBER OF STEPS        0
Info: STEPS PER CYCLE        10
Info: PERIODIC CELL BASIS 1  36.592 0 0
Info: PERIODIC CELL BASIS 2  0 35.779 0
Info: PERIODIC CELL BASIS 3  0 0 34.229
Info: PERIODIC CELL CENTER   0 0 0
Info: WRAPPING WATERS AROUND PERIODIC BOUNDARIES ON OUTPUT.
Info: WRAPPING ALL CLUSTERS AROUND PERIODIC BOUNDARIES ON OUTPUT.
Info: FIRST LDB TIMESTEP     50
Info: LAST LDB TIMESTEP     -1
Info: HOM BACKGROUND SCALING 1
Info: PME BACKGROUND SCALING 1
Info: MIN ATOMS PER PATCH    40
Info: EMPTY PATCH LOAD       40 ATOMS
Info: INITIAL TEMPERATURE    300
Info: CENTER OF MASS MOVING INITIALLY? NO
Info: DIELECTRIC             1
Info: EXCLUDE                SCALED ONE-FOUR
Info: 1-4 ELECTROSTATICS SCALED BY 0.833333
Info: MODIFIED 1-4 VDW PARAMETERS WILL BE USED
Info: DCD FILENAME           mobley_2143011_equil.dcd
Info: DCD FREQUENCY          100000
Info: DCD FIRST STEP         100000
Info: DCD FILE WILL CONTAIN UNIT CELL DATA
Info: XST FILENAME           mobley_2143011_equil.xst
Info: XST FREQUENCY          100000
Info: NO VELOCITY DCD OUTPUT
Info: NO FORCE DCD OUTPUT
Info: OUTPUT FILENAME        mobley_2143011_equil
Info: BINARY OUTPUT FILES WILL BE USED
Info: RESTART FILENAME       mobley_2143011_equil.restart
Info: RESTART FREQUENCY      100000
Info: BINARY RESTART FILES WILL BE USED
Info: CUTOFF                 9
Info: PAIRLIST DISTANCE      11
Info: PAIRLIST SHRINK RATE   0.01
Info: PAIRLIST GROW RATE     0.01
Info: PAIRLIST TRIGGER       0.3
Info: PAIRLISTS PER CYCLE    2
Info: PAIRLISTS ENABLED
Info: MARGIN                 8
Info: HYDROGEN GROUP CUTOFF  2.5
Info: PATCH DIMENSION        21.5
Info: ENERGY OUTPUT STEPS    100000
Info: ENERGY EVALUATION STEPS    100000
Info: OUTPUT ENERGY PRECISION 4
Info: CROSSTERM ENERGY INCLUDED IN DIHEDRAL
Info: TIMING OUTPUT STEPS    1000000
Info: PRESSURE OUTPUT STEPS  100000
Info: FIXED ATOMS ACTIVE
Info: LANGEVIN DYNAMICS ACTIVE
Info: LANGEVIN TEMPERATURE   30
Info: LANGEVIN USING BBK INTEGRATOR
Info: LANGEVIN DAMPING COEFFICIENT IS 1 INVERSE PS
Info: LANGEVIN DYNAMICS APPLIED TO HYDROGENS
Info: LANGEVIN PISTON PRESSURE CONTROL ACTIVE
Info:        TARGET PRESSURE IS 1.01325 BAR
Info:     OSCILLATION PERIOD IS 50 FS
Info:             DECAY TIME IS 25 FS
Info:     PISTON TEMPERATURE IS 300 K
Info:       PRESSURE CONTROL IS GROUP-BASED
Info:    INITIAL STRAIN RATE IS 0 0 0
Info:       CELL FLUCTUATION IS ISOTROPIC
Info: PARTICLE MESH EWALD (PME) ACTIVE
Info: PME TOLERANCE               1e-06
Info: PME EWALD COEFFICIENT       0.348832
Info: PME INTERPOLATION ORDER     4
Info: PME GRID DIMENSIONS         40 36 36
Info: PME MAXIMUM GRID SPACING    1
Info: FULL ELECTROSTATIC EVALUATION FREQUENCY      2
Info: USING VERLET I (r-RESPA) MTS SCHEME.
Info: C1 SPLITTING OF LONG RANGE ELECTROSTATICS
Info: PLACING ATOMS IN PATCHES BY HYDROGEN GROUPS
Info: RIGID BONDS TO HYDROGEN : ALL
Info:         ERROR TOLERANCE : 1e-08
Info:          MAX ITERATIONS : 100
Info: RIGID WATER USING SETTLE ALGORITHM
Info: RANDOM NUMBER SEED     1744089703
Info: USE HYDROGEN BONDS?    NO
Info: Using AMBER format force field!
Info: AMBER PARM FILE        mobley_2143011.prmtop
Info: COORDINATE PDB         mobley_2143011.pdb
Info: Exclusions will be read from PARM file!
Info: SCNB (VDW SCALING)     2
Info: USING ARITHMETIC MEAN TO COMBINE L-J SIGMA PARAMETERS
Info: BINARY COORDINATES     mobley_2143011_min.coor
Info: SUMMARY OF PARAMETERS:
Info: 7 BONDS
Info: 9 ANGLES
Info: 8 DIHEDRAL
Info: 0 IMPROPER
Info: 0 CROSSTERM
Info: 0 VDW
Info: 21 VDW_PAIRS
Info: 0 NBTHOLE_PAIRS
Info: STRUCTURE SUMMARY:
Info: 2973 ATOMS
Info: 2972 BONDS
Info: 24 ANGLES
Info: 32 DIHEDRALS
Info: 0 IMPROPERS
Info: 0 CROSSTERMS
Info: 3024 EXCLUSIONS
Info: 15 FIXED ATOMS
Info: 2968 RIGID BONDS
Info: 10 RIGID BONDS BETWEEN FIXED ATOMS
Info: 5916 DEGREES OF FREEDOM
Info: 991 HYDROGEN GROUPS
Info: 4 ATOMS IN LARGEST HYDROGEN GROUP
Info: 991 MIGRATION GROUPS
Info: 4 ATOMS IN LARGEST MIGRATION GROUP
Info: 5 HYDROGEN GROUPS WITH ALL ATOMS FIXED
Info: TOTAL MASS = 17833.9 amu
Info: TOTAL CHARGE = 0.000199992 e
Info: MASS DENSITY = 0.660841 g/cm^3
Info: ATOM DENSITY = 0.0663417 atoms/A^3
Info: ADDED 0 IMPLICIT EXCLUSIONS
Info: NONBONDED TABLE R-SQUARED SPACING: 0.0625
Info: NONBONDED TABLE SIZE: 705 POINTS
Info: REMOVING COM VELOCITY 0.0588682 -0.098891 -0.019901
TCL: Running for 100000 steps
ETITLE: TS BOND ANGLE DIHED IMPRP ELECT VDW BOUNDARY MISC KINETIC TOTAL TEMP POTENTIAL TOTAL3 TEMPAVG PRESSURE GPRESSURE VOLUME PRESSAVG GPRESSAVG
ENERGY: 0 0.0000 0.0000 0.0000 0.0000 -13733.6147 2425.5592 0.0000 0.0000 1768.7910 -9539.2645 300.9115 -11308.0555 -9538.9348 300.9115 445.3252 474.2770 44813.4683 445.3252 474.2770
ENERGY: 100000 0.0000 0.0000 0.0000 0.0000 -14349.8086 2533.8598 0.0000 0.0000 177.9829 -11637.9659 30.2789 -11815.9488 -11637.6423 30.8982 582.7073 630.4597 28672.1645 4.5593 4.5851
TCL: Running 100000 steps at 60 kelvin.
TCL: Setting parameter langevinTemp to 60
TCL: Running for 100000 steps
ETITLE: TS BOND ANGLE DIHED IMPRP ELECT VDW BOUNDARY MISC KINETIC TOTAL TEMP POTENTIAL TOTAL3 TEMPAVG PRESSURE GPRESSURE VOLUME PRESSAVG GPRESSAVG
ENERGY: 100000 0.0000 0.0000 0.0000 0.0000 -14349.8086 2533.8598 0.0000 0.0000 177.8970 -11638.0518 30.2643 -11815.9488 -11637.7405 30.2643 568.1079 630.5313 28672.1645 568.1079 630.5313
ENERGY: 200000 0.0000 0.0000 0.0000 0.0000 -14240.8914 2470.9700 0.0000 0.0000 356.4348 -11413.4865 60.6377 -11769.9214 -11411.8952 59.8715 278.7676 330.5666 28533.4683 3.7165 3.7222
TCL: Running 100000 steps at 90 kelvin.
TCL: Setting parameter langevinTemp to 90
TCL: Running for 100000 steps
ETITLE: TS BOND ANGLE DIHED IMPRP ELECT VDW BOUNDARY MISC KINETIC TOTAL TEMP POTENTIAL TOTAL3 TEMPAVG PRESSURE GPRESSURE VOLUME PRESSAVG GPRESSAVG
ENERGY: 200000 0.0000 0.0000 0.0000 0.0000 -14240.8914 2470.9700 0.0000 0.0000 356.2595 -11413.6619 60.6078 -11769.9214 -11413.0643 60.6078 277.4858 330.9502 28533.4683 277.4858 330.9502
ENERGY: 300000 0.0000 0.0000 0.0000 0.0000 -14132.0598 2460.5745 0.0000 0.0000 523.5542 -11147.9312 89.0684 -11671.4854 -11146.8243 90.0398 488.2625 556.3986 28660.7310 5.1257 5.2026
TCL: Running 100000 steps at 120 kelvin.
TCL: Setting parameter langevinTemp to 120
TCL: Running for 100000 steps
ETITLE: TS BOND ANGLE DIHED IMPRP ELECT VDW BOUNDARY MISC KINETIC TOTAL TEMP POTENTIAL TOTAL3 TEMPAVG PRESSURE GPRESSURE VOLUME PRESSAVG GPRESSAVG
ENERGY: 300000 0.0000 0.0000 0.0000 0.0000 -14132.0598 2460.5745 0.0000 0.0000 523.2952 -11148.1902 89.0244 -11671.4854 -11147.2714 89.0244 517.2758 556.5909 28660.7310 517.2758 556.5909
ENERGY: 400000 0.0000 0.0000 0.0000 0.0000 -13859.7195 2297.7975 0.0000 0.0000 722.7367 -10839.1852 122.9539 -11561.9219 -10837.3958 120.0595 -509.2540 -455.8496 29019.9107 3.7839 3.6941
TCL: Running 100000 steps at 150 kelvin.
TCL: Setting parameter langevinTemp to 150
TCL: Running for 100000 steps
ETITLE: TS BOND ANGLE DIHED IMPRP ELECT VDW BOUNDARY MISC KINETIC TOTAL TEMP POTENTIAL TOTAL3 TEMPAVG PRESSURE GPRESSURE VOLUME PRESSAVG GPRESSAVG
ENERGY: 400000 0.0000 0.0000 0.0000 0.0000 -13859.7195 2297.7975 0.0000 0.0000 722.3882 -10839.5338 122.8946 -11561.9219 -10837.8516 122.8946 -524.8281 -455.6459 29019.9107 -524.8281 -455.6459
ENERGY: 500000 0.0000 0.0000 0.0000 0.0000 -13795.4117 2419.1706 0.0000 0.0000 889.5442 -10486.6969 151.3316 -11376.2411 -10485.3577 149.6961 1193.9582 1220.6206 28954.2599 3.2381 3.2768
TCL: Running 100000 steps at 180 kelvin.
TCL: Setting parameter langevinTemp to 180
TCL: Running for 100000 steps
ETITLE: TS BOND ANGLE DIHED IMPRP ELECT VDW BOUNDARY MISC KINETIC TOTAL TEMP POTENTIAL TOTAL3 TEMPAVG PRESSURE GPRESSURE VOLUME PRESSAVG GPRESSAVG
ENERGY: 500000 0.0000 0.0000 0.0000 0.0000 -13795.4117 2419.1706 0.0000 0.0000 889.0980 -10487.1431 151.2557 -11376.2411 -10485.3932 151.2557 1161.0159 1219.6757 28954.2599 1161.0159 1219.6757
ENERGY: 600000 0.0000 0.0000 0.0000 0.0000 -13211.5709 2169.3205 0.0000 0.0000 1047.9981 -9994.2524 178.2882 -11042.2505 -9990.7713 180.0632 224.9590 277.5017 29319.5581 3.8086 3.7354
TCL: Running 100000 steps at 210 kelvin.
TCL: Setting parameter langevinTemp to 210
TCL: Running for 100000 steps
ETITLE: TS BOND ANGLE DIHED IMPRP ELECT VDW BOUNDARY MISC KINETIC TOTAL TEMP POTENTIAL TOTAL3 TEMPAVG PRESSURE GPRESSURE VOLUME PRESSAVG GPRESSAVG
ENERGY: 600000 0.0000 0.0000 0.0000 0.0000 -13211.5709 2169.3205 0.0000 0.0000 1047.4877 -9994.7627 178.2014 -11042.2505 -9992.7979 178.2014 214.3775 279.7567 29319.5581 214.3775 279.7567
ENERGY: 700000 0.0000 0.0000 0.0000 0.0000 -12386.6829 1837.2663 0.0000 0.0000 1227.9892 -9321.4274 208.9088 -10549.4166 -9319.3415 210.1597 -488.0405 -389.2276 29196.7690 4.0634 3.9408
TCL: Running 100000 steps at 240 kelvin.
TCL: Setting parameter langevinTemp to 240
TCL: Running for 100000 steps
ETITLE: TS BOND ANGLE DIHED IMPRP ELECT VDW BOUNDARY MISC KINETIC TOTAL TEMP POTENTIAL TOTAL3 TEMPAVG PRESSURE GPRESSURE VOLUME PRESSAVG GPRESSAVG
ENERGY: 700000 0.0000 0.0000 0.0000 0.0000 -12386.6829 1837.2663 0.0000 0.0000 1227.3554 -9322.0612 208.8010 -10549.4166 -9319.6226 208.8010 -481.6638 -389.6450 29196.7690 -481.6638 -389.6450
ENERGY: 800000 0.0000 0.0000 0.0000 0.0000 -11886.3604 1770.4742 0.0000 0.0000 1432.2636 -8683.6226 243.6605 -10115.8862 -8680.2566 239.5641 245.0240 327.1634 29608.0503 2.8265 2.8047
TCL: Running 100000 steps at 270 kelvin.
TCL: Setting parameter langevinTemp to 270
TCL: Running for 100000 steps
ETITLE: TS BOND ANGLE DIHED IMPRP ELECT VDW BOUNDARY MISC KINETIC TOTAL TEMP POTENTIAL TOTAL3 TEMPAVG PRESSURE GPRESSURE VOLUME PRESSAVG GPRESSAVG
ENERGY: 800000 0.0000 0.0000 0.0000 0.0000 -11886.3604 1770.4742 0.0000 0.0000 1431.5649 -8684.3213 243.5417 -10115.8862 -8682.6136 243.5417 254.4271 327.5960 29608.0503 254.4271 327.5960
ENERGY: 900000 0.0000 0.0000 0.0000 0.0000 -11384.8736 1681.8741 0.0000 0.0000 1570.4739 -8132.5256 267.1732 -9702.9994 -8130.2081 269.6347 705.2269 792.6835 29892.2415 2.1884 2.2052
TCL: Running 1000000 steps at 300 kelvin.
TCL: Setting parameter langevinTemp to 300
TCL: Running for 1000000 steps
ETITLE: TS BOND ANGLE DIHED IMPRP ELECT VDW BOUNDARY MISC KINETIC TOTAL TEMP POTENTIAL TOTAL3 TEMPAVG PRESSURE GPRESSURE VOLUME PRESSAVG GPRESSAVG
ENERGY: 900000 0.0000 0.0000 0.0000 0.0000 -11384.8736 1681.8741 0.0000 0.0000 1569.7022 -8133.2972 267.0419 -9702.9994 -8130.8440 267.0419 704.5881 791.6443 29892.2415 704.5881 791.6443
ENERGY: 1100000 0.0000 0.0000 0.0000 0.0000 -10786.7235 1417.2342 0.0000 0.0000 1819.5206 -7549.9688 309.5417 -9369.4893 -7545.6673 299.4261 -314.1412 -227.0724 30612.1492 2.8003 2.7685
ENERGY: 1300000 0.0000 0.0000 0.0000 0.0000 -10670.2087 1387.7831 0.0000 0.0000 1762.1283 -7520.2973 299.7780 -9282.4256 -7516.5357 300.5575 -193.6273 -116.8517 30415.4124 2.5586 2.7420
ENERGY: 1500000 0.0000 0.0000 0.0000 0.0000 -10715.7245 1407.1514 0.0000 0.0000 1787.5821 -7520.9910 304.1083 -9308.5731 -7517.5414 300.8293 -62.3353 -42.0777 30484.2789 4.1129 4.0732
ENERGY: 1700000 0.0000 0.0000 0.0000 0.0000 -10761.9554 1421.4267 0.0000 0.0000 1761.4804 -7579.0483 299.6678 -9340.5287 -7575.3119 300.8361 -55.7766 13.8435 30324.7312 3.1329 2.9965
ENERGY: 1900000 0.0000 0.0000 0.0000 0.0000 -10800.0332 1454.3632 0.0000 0.0000 1758.0435 -7587.6265 299.0831 -9345.6700 -7584.2205 299.8900 -174.0723 -50.9471 30859.1621 3.2932 3.1990
TCL: Exiting due to exit command.
