Info: SIMULATION PARAMETERS:
Info: TIMESTEP               2
Info: NUMBER OF STEPS        0
Info: STEPS PER CYCLE        10
Info: PERIODIC CELL BASIS 1  35.89 0 0
Info: PERIODIC CELL BASIS 2  0 35.411 0
Info: PERIODIC CELL BASIS 3  0 0 34.954
Info: PERIODIC CELL CENTER   0 0 0
Info: WRAPPING WATERS AROUND PERIODIC BOUNDARIES ON OUTPUT.
Info: WRAPPING ALL CLUSTERS AROUND PERIODIC BOUNDARIES ON OUTPUT.
Info: FIRST LDB TIMESTEP     50
Info: LAST LDB TIMESTEP     -1
Info: HOM BACKGROUND SCALING 1
Info: PME BACKGROUND SCALING 1
Info: MIN ATOMS PER PATCH    40
Info: EMPTY PATCH LOAD       40 ATOMS
Info: INITIAL TEMPERATURE    300
Info: CENTER OF MASS MOVING INITIALLY? NO
Info: DIELECTRIC             1
Info: EXCLUDE                SCALED ONE-FOUR
Info: 1-4 ELECTROSTATICS SCALED BY 0.833333
Info: MODIFIED 1-4 VDW PARAMETERS WILL BE USED
Info: DCD FILENAME           mobley_3370989_equil.dcd
Info: DCD FREQUENCY          100000
Info: DCD FIRST STEP         100000
Info: DCD FILE WILL CONTAIN UNIT CELL DATA
Info: XST FILENAME           mobley_3370989_equil.xst
Info: XST FREQUENCY          100000
Info: NO VELOCITY DCD OUTPUT
Info: NO FORCE DCD OUTPUT
Info: OUTPUT FILENAME        mobley_3370989_equil
Info: BINARY OUTPUT FILES WILL BE USED
Info: RESTART FILENAME       mobley_3370989_equil.restart
Info: RESTART FREQUENCY      100000
Info: BINARY RESTART FILES WILL BE USED
Info: CUTOFF                 9
Info: PAIRLIST DISTANCE      11
Info: PAIRLIST SHRINK RATE   0.01
Info: PAIRLIST GROW RATE     0.01
Info: PAIRLIST TRIGGER       0.3
Info: PAIRLISTS PER CYCLE    2
Info: PAIRLISTS ENABLED
Info: MARGIN                 8
Info: HYDROGEN GROUP CUTOFF  2.5
Info: PATCH DIMENSION        21.5
Info: ENERGY OUTPUT STEPS    100000
Info: ENERGY EVALUATION STEPS    100000
Info: OUTPUT ENERGY PRECISION 4
Info: CROSSTERM ENERGY INCLUDED IN DIHEDRAL
Info: TIMING OUTPUT STEPS    1000000
Info: PRESSURE OUTPUT STEPS  100000
Info: FIXED ATOMS ACTIVE
Info: LANGEVIN DYNAMICS ACTIVE
Info: LANGEVIN TEMPERATURE   30
Info: LANGEVIN USING BBK INTEGRATOR
Info: LANGEVIN DAMPING COEFFICIENT IS 1 INVERSE PS
Info: LANGEVIN DYNAMICS APPLIED TO HYDROGENS
Info: LANGEVIN PISTON PRESSURE CONTROL ACTIVE
Info:        TARGET PRESSURE IS 1.01325 BAR
Info:     OSCILLATION PERIOD IS 50 FS
Info:             DECAY TIME IS 25 FS
Info:     PISTON TEMPERATURE IS 300 K
Info:       PRESSURE CONTROL IS GROUP-BASED
Info:    INITIAL STRAIN RATE IS 0 0 0
Info:       CELL FLUCTUATION IS ISOTROPIC
Info: PARTICLE MESH EWALD (PME) ACTIVE
Info: PME TOLERANCE               1e-06
Info: PME EWALD COEFFICIENT       0.348832
Info: PME INTERPOLATION ORDER     4
Info: PME GRID DIMENSIONS         36 36 36
Info: PME MAXIMUM GRID SPACING    1
Info: FULL ELECTROSTATIC EVALUATION FREQUENCY      2
Info: USING VERLET I (r-RESPA) MTS SCHEME.
Info: C1 SPLITTING OF LONG RANGE ELECTROSTATICS
Info: PLACING ATOMS IN PATCHES BY HYDROGEN GROUPS
Info: RIGID BONDS TO HYDROGEN : ALL
Info:         ERROR TOLERANCE : 1e-08
Info:          MAX ITERATIONS : 100
Info: RIGID WATER USING SETTLE ALGORITHM
Info: RANDOM NUMBER SEED     1743673749
Info: USE HYDROGEN BONDS?    NO
Info: Using AMBER format force field!
Info: AMBER PARM FILE        mobley_3370989.prmtop
Info: COORDINATE PDB         mobley_3370989.pdb
Info: Exclusions will be read from PARM file!
Info: SCNB (VDW SCALING)     2
Info: USING ARITHMETIC MEAN TO COMBINE L-J SIGMA PARAMETERS
Info: BINARY COORDINATES     mobley_3370989_min.coor
Info: SUMMARY OF PARAMETERS:
Info: 6 BONDS
Info: 6 ANGLES
Info:   6 HARMONIC
Info:   0 COSINE-BASED
Info: 3 DIHEDRAL
Info: 0 IMPROPER
Info: 0 CROSSTERM
Info: 0 VDW
Info: 21 VDW_PAIRS
Info: 0 NBTHOLE_PAIRS
Info: STRUCTURE SUMMARY:
Info: 2915 ATOMS
Info: 2914 BONDS
Info: 12 ANGLES
Info: 15 DIHEDRALS
Info: 0 IMPROPERS
Info: 0 CROSSTERMS
Info: 2935 EXCLUSIONS
Info: 8 FIXED ATOMS
Info: 2911 RIGID BONDS
Info: 4 RIGID BONDS BETWEEN FIXED ATOMS
Info: 5814 DEGREES OF FREEDOM
Info: 973 HYDROGEN GROUPS
Info: 4 ATOMS IN LARGEST HYDROGEN GROUP
Info: 973 MIGRATION GROUPS
Info: 4 ATOMS IN LARGEST MIGRATION GROUP
Info: 4 HYDROGEN GROUPS WITH ALL ATOMS FIXED
Info: TOTAL MASS = 17523.6 amu
Info: TOTAL CHARGE = -0.000200003 e
Info: MASS DENSITY = 0.655048 g/cm^3
Info: ATOM DENSITY = 0.0656191 atoms/A^3
Info: ADDED 0 IMPLICIT EXCLUSIONS
Info: NONBONDED TABLE R-SQUARED SPACING: 0.0625
Info: NONBONDED TABLE SIZE: 705 POINTS
Info: REMOVING COM VELOCITY 0.0538653 0.303411 -0.0753239
TCL: Running for 100000 steps
ETITLE: TS BOND ANGLE DIHED IMPRP ELECT VDW BOUNDARY MISC KINETIC TOTAL TEMP POTENTIAL TOTAL3 TEMPAVG PRESSURE GPRESSURE VOLUME PRESSAVG GPRESSAVG
ENERGY: 0 0.0000 0.0000 0.0000 0.0000 -13588.0964 2419.1209 0.0000 0.0000 1761.7861 -9407.1895 304.9780 -11168.9756 -9406.8219 304.9780 522.6056 561.6716 44423.0662 522.6056 561.6716
ENERGY: 100000 0.0000 0.0000 0.0000 0.0000 -14145.6358 2492.6761 0.0000 0.0000 173.0422 -11479.9175 29.9549 -11652.9597 -11479.7963 30.9597 220.0851 290.1680 28608.7462 3.1013 3.0797
TCL: Running 100000 steps at 60 kelvin.
TCL: Setting parameter langevinTemp to 60
TCL: Running for 100000 steps
ETITLE: TS BOND ANGLE DIHED IMPRP ELECT VDW BOUNDARY MISC KINETIC TOTAL TEMP POTENTIAL TOTAL3 TEMPAVG PRESSURE GPRESSURE VOLUME PRESSAVG GPRESSAVG
ENERGY: 100000 0.0000 0.0000 0.0000 0.0000 -14145.6358 2492.6761 0.0000 0.0000 172.9571 -11480.0026 29.9401 -11652.9597 -11479.6699 29.9401 225.1030 289.8563 28608.7462 225.1030 289.8563
ENERGY: 200000 0.0000 0.0000 0.0000 0.0000 -14006.1896 2438.3023 0.0000 0.0000 335.9438 -11231.9434 58.1543 -11567.8873 -11231.1086 59.8237 207.9709 254.2864 28407.0798 3.4092 3.4412
TCL: Running 100000 steps at 90 kelvin.
TCL: Setting parameter langevinTemp to 90
TCL: Running for 100000 steps
ETITLE: TS BOND ANGLE DIHED IMPRP ELECT VDW BOUNDARY MISC KINETIC TOTAL TEMP POTENTIAL TOTAL3 TEMPAVG PRESSURE GPRESSURE VOLUME PRESSAVG GPRESSAVG
ENERGY: 200000 0.0000 0.0000 0.0000 0.0000 -14006.1896 2438.3023 0.0000 0.0000 335.7749 -11232.1123 58.1251 -11567.8873 -11231.4347 58.1251 196.4751 254.0956 28407.0798 196.4751 254.0956
ENERGY: 300000 0.0000 0.0000 0.0000 0.0000 -13846.5381 2392.3431 0.0000 0.0000 524.4769 -10929.7182 90.7908 -11454.1951 -10928.1572 89.8855 178.4718 255.8700 28408.0246 3.3372 3.2766
TCL: Running 100000 steps at 120 kelvin.
TCL: Setting parameter langevinTemp to 120
TCL: Running for 100000 steps
ETITLE: TS BOND ANGLE DIHED IMPRP ELECT VDW BOUNDARY MISC KINETIC TOTAL TEMP POTENTIAL TOTAL3 TEMPAVG PRESSURE GPRESSURE VOLUME PRESSAVG GPRESSAVG
ENERGY: 300000 0.0000 0.0000 0.0000 0.0000 -13846.5381 2392.3431 0.0000 0.0000 524.2213 -10929.9737 90.7465 -11454.1951 -10929.1632 90.7465 197.0438 256.5089 28408.0246 197.0438 256.5089
ENERGY: 400000 0.0000 0.0000 0.0000 0.0000 -13611.9817 2291.1544 0.0000 0.0000 706.0249 -10614.8024 122.2181 -11320.8274 -10614.0286 119.9023 184.1721 180.4363 28085.9842 4.3282 4.2296
TCL: Running 100000 steps at 150 kelvin.
TCL: Setting parameter langevinTemp to 150
TCL: Running for 100000 steps
ETITLE: TS BOND ANGLE DIHED IMPRP ELECT VDW BOUNDARY MISC KINETIC TOTAL TEMP POTENTIAL TOTAL3 TEMPAVG PRESSURE GPRESSURE VOLUME PRESSAVG GPRESSAVG
ENERGY: 400000 0.0000 0.0000 0.0000 0.0000 -13611.9817 2291.1544 0.0000 0.0000 705.6810 -10615.1464 122.1585 -11320.8274 -10613.5993 122.1585 135.9132 179.0744 28085.9842 135.9132 179.0744
ENERGY: 500000 0.0000 0.0000 0.0000 0.0000 -13328.5140 2135.6451 0.0000 0.0000 844.4350 -10348.4340 146.1778 -11192.8689 -10346.6685 149.9464 -1028.9986 -959.0432 28751.1351 4.5796 4.5307
TCL: Running 100000 steps at 180 kelvin.
TCL: Setting parameter langevinTemp to 180
TCL: Running for 100000 steps
ETITLE: TS BOND ANGLE DIHED IMPRP ELECT VDW BOUNDARY MISC KINETIC TOTAL TEMP POTENTIAL TOTAL3 TEMPAVG PRESSURE GPRESSURE VOLUME PRESSAVG GPRESSAVG
ENERGY: 500000 0.0000 0.0000 0.0000 0.0000 -13328.5140 2135.6451 0.0000 0.0000 844.0011 -10348.8678 146.1027 -11192.8689 -10347.1348 146.1027 -1007.2347 -959.0263 28751.1351 -1007.2347 -959.0263
ENERGY: 600000 0.0000 0.0000 0.0000 0.0000 -12900.3838 2014.4730 0.0000 0.0000 1047.7723 -9838.1385 181.3770 -10885.9108 -9836.8835 179.6161 -816.9699 -741.0530 28769.7425 4.1738 3.9736
TCL: Running 100000 steps at 210 kelvin.
TCL: Setting parameter langevinTemp to 210
TCL: Running for 100000 steps
ETITLE: TS BOND ANGLE DIHED IMPRP ELECT VDW BOUNDARY MISC KINETIC TOTAL TEMP POTENTIAL TOTAL3 TEMPAVG PRESSURE GPRESSURE VOLUME PRESSAVG GPRESSAVG
ENERGY: 600000 0.0000 0.0000 0.0000 0.0000 -12900.3838 2014.4730 0.0000 0.0000 1047.2519 -9838.6589 181.2869 -10885.9108 -9836.6915 181.2869 -791.3681 -742.0878 28769.7425 -791.3681 -742.0878
ENERGY: 700000 0.0000 0.0000 0.0000 0.0000 -12469.5921 1990.5685 0.0000 0.0000 1189.2506 -9289.7730 205.8679 -10479.0236 -9286.7441 209.9834 658.0850 709.8666 28461.9136 3.2593 3.4067
TCL: Running 100000 steps at 240 kelvin.
TCL: Setting parameter langevinTemp to 240
TCL: Running for 100000 steps
ETITLE: TS BOND ANGLE DIHED IMPRP ELECT VDW BOUNDARY MISC KINETIC TOTAL TEMP POTENTIAL TOTAL3 TEMPAVG PRESSURE GPRESSURE VOLUME PRESSAVG GPRESSAVG
ENERGY: 700000 0.0000 0.0000 0.0000 0.0000 -12469.5921 1990.5685 0.0000 0.0000 1188.6489 -9290.3747 205.7638 -10479.0236 -9288.8198 205.7638 643.4251 709.5571 28461.9136 643.4251 709.5571
ENERGY: 800000 0.0000 0.0000 0.0000 0.0000 -11832.5785 1748.9143 0.0000 0.0000 1383.1804 -8700.4837 239.4386 -10083.6641 -8697.0322 240.3874 254.1341 273.7140 28382.4345 5.0722 4.9040
TCL: Running 100000 steps at 270 kelvin.
TCL: Setting parameter langevinTemp to 270
TCL: Running for 100000 steps
ETITLE: TS BOND ANGLE DIHED IMPRP ELECT VDW BOUNDARY MISC KINETIC TOTAL TEMP POTENTIAL TOTAL3 TEMPAVG PRESSURE GPRESSURE VOLUME PRESSAVG GPRESSAVG
ENERGY: 800000 0.0000 0.0000 0.0000 0.0000 -11832.5785 1748.9143 0.0000 0.0000 1382.5088 -8701.1554 239.3223 -10083.6641 -8698.9986 239.3223 203.5815 272.5271 28382.4345 203.5815 272.5271
ENERGY: 900000 0.0000 0.0000 0.0000 0.0000 -11165.3614 1578.1823 0.0000 0.0000 1623.6225 -7963.5567 281.0609 -9587.1792 -7959.5637 270.0827 163.4621 197.4878 29427.1795 4.1608 4.2217
TCL: Running 1000000 steps at 300 kelvin.
TCL: Setting parameter langevinTemp to 300
TCL: Running for 1000000 steps
ETITLE: TS BOND ANGLE DIHED IMPRP ELECT VDW BOUNDARY MISC KINETIC TOTAL TEMP POTENTIAL TOTAL3 TEMPAVG PRESSURE GPRESSURE VOLUME PRESSAVG GPRESSAVG
ENERGY: 900000 0.0000 0.0000 0.0000 0.0000 -11165.3614 1578.1823 0.0000 0.0000 1622.8508 -7964.3284 280.9273 -9587.1792 -7962.7319 280.9273 111.0925 199.5231 29427.1795 111.0925 199.5231
ENERGY: 1100000 0.0000 0.0000 0.0000 0.0000 -10520.1109 1337.9884 0.0000 0.0000 1663.4981 -7518.6244 287.9636 -9182.1225 -7512.8117 300.0052 -707.7119 -648.7985 30055.6940 2.2235 2.2262
ENERGY: 1300000 0.0000 0.0000 0.0000 0.0000 -10543.1957 1398.8324 0.0000 0.0000 1726.0085 -7418.3548 298.7847 -9144.3633 -7414.2864 300.4232 -417.4068 -317.6727 30627.5328 4.0804 4.0597
ENERGY: 1500000 0.0000 0.0000 0.0000 0.0000 -10536.9278 1391.6055 0.0000 0.0000 1750.6748 -7394.6475 303.0546 -9145.3223 -7392.5380 299.5466 -234.6071 -187.9292 30498.5088 2.7997 2.9226
ENERGY: 1700000 0.0000 0.0000 0.0000 0.0000 -10589.9033 1399.6079 0.0000 0.0000 1712.8486 -7477.4468 296.5066 -9190.2954 -7472.0194 300.1272 -606.9657 -462.4078 30717.8238 3.3412 3.4802
ENERGY: 1900000 0.0000 0.0000 0.0000 0.0000 -10645.4420 1439.2029 0.0000 0.0000 1692.4886 -7513.7505 292.9821 -9206.2391 -7512.1739 300.4436 -104.2763 -42.7981 30183.5552 3.6746 3.5719
TCL: Exiting due to exit command.
