Info: SIMULATION PARAMETERS:
Info: TIMESTEP               2
Info: NUMBER OF STEPS        0
Info: STEPS PER CYCLE        10
Info: PERIODIC CELL BASIS 1  37.435 0 0
Info: PERIODIC CELL BASIS 2  0 35.132 0
Info: PERIODIC CELL BASIS 3  0 0 33.27
Info: PERIODIC CELL CENTER   0 0 0
Info: WRAPPING WATERS AROUND PERIODIC BOUNDARIES ON OUTPUT.
Info: WRAPPING ALL CLUSTERS AROUND PERIODIC BOUNDARIES ON OUTPUT.
Info: FIRST LDB TIMESTEP     50
Info: LAST LDB TIMESTEP     -1
Info: HOM BACKGROUND SCALING 1
Info: PME BACKGROUND SCALING 1
Info: MIN ATOMS PER PATCH    40
Info: EMPTY PATCH LOAD       40 ATOMS
Info: INITIAL TEMPERATURE    300
Info: CENTER OF MASS MOVING INITIALLY? NO
Info: DIELECTRIC             1
Info: EXCLUDE                SCALED ONE-FOUR
Info: 1-4 ELECTROSTATICS SCALED BY 0.833333
Info: MODIFIED 1-4 VDW PARAMETERS WILL BE USED
Info: DCD FILENAME           mobley_4884177_equil.dcd
Info: DCD FREQUENCY          100000
Info: DCD FIRST STEP         100000
Info: DCD FILE WILL CONTAIN UNIT CELL DATA
Info: XST FILENAME           mobley_4884177_equil.xst
Info: XST FREQUENCY          100000
Info: NO VELOCITY DCD OUTPUT
Info: NO FORCE DCD OUTPUT
Info: OUTPUT FILENAME        mobley_4884177_equil
Info: BINARY OUTPUT FILES WILL BE USED
Info: RESTART FILENAME       mobley_4884177_equil.restart
Info: RESTART FREQUENCY      100000
Info: BINARY RESTART FILES WILL BE USED
Info: CUTOFF                 9
Info: PAIRLIST DISTANCE      11
Info: PAIRLIST SHRINK RATE   0.01
Info: PAIRLIST GROW RATE     0.01
Info: PAIRLIST TRIGGER       0.3
Info: PAIRLISTS PER CYCLE    2
Info: PAIRLISTS ENABLED
Info: MARGIN                 8
Info: HYDROGEN GROUP CUTOFF  2.5
Info: PATCH DIMENSION        21.5
Info: ENERGY OUTPUT STEPS    100000
Info: ENERGY EVALUATION STEPS    100000
Info: OUTPUT ENERGY PRECISION 4
Info: CROSSTERM ENERGY INCLUDED IN DIHEDRAL
Info: TIMING OUTPUT STEPS    1000000
Info: PRESSURE OUTPUT STEPS  100000
Info: FIXED ATOMS ACTIVE
Info: LANGEVIN DYNAMICS ACTIVE
Info: LANGEVIN TEMPERATURE   30
Info: LANGEVIN USING BBK INTEGRATOR
Info: LANGEVIN DAMPING COEFFICIENT IS 1 INVERSE PS
Info: LANGEVIN DYNAMICS APPLIED TO HYDROGENS
Info: LANGEVIN PISTON PRESSURE CONTROL ACTIVE
Info:        TARGET PRESSURE IS 1.01325 BAR
Info:     OSCILLATION PERIOD IS 50 FS
Info:             DECAY TIME IS 25 FS
Info:     PISTON TEMPERATURE IS 300 K
Info:       PRESSURE CONTROL IS GROUP-BASED
Info:    INITIAL STRAIN RATE IS 0 0 0
Info:       CELL FLUCTUATION IS ISOTROPIC
Info: PARTICLE MESH EWALD (PME) ACTIVE
Info: PME TOLERANCE               1e-06
Info: PME EWALD COEFFICIENT       0.348832
Info: PME INTERPOLATION ORDER     4
Info: PME GRID DIMENSIONS         40 36 36
Info: PME MAXIMUM GRID SPACING    1
Info: FULL ELECTROSTATIC EVALUATION FREQUENCY      2
Info: USING VERLET I (r-RESPA) MTS SCHEME.
Info: C1 SPLITTING OF LONG RANGE ELECTROSTATICS
Info: PLACING ATOMS IN PATCHES BY HYDROGEN GROUPS
Info: RIGID BONDS TO HYDROGEN : ALL
Info:         ERROR TOLERANCE : 1e-08
Info:          MAX ITERATIONS : 100
Info: RIGID WATER USING SETTLE ALGORITHM
Info: RANDOM NUMBER SEED     1744086500
Info: USE HYDROGEN BONDS?    NO
Info: Using AMBER format force field!
Info: AMBER PARM FILE        mobley_4884177.prmtop
Info: COORDINATE PDB         mobley_4884177.pdb
Info: Exclusions will be read from PARM file!
Info: SCNB (VDW SCALING)     2
Info: USING ARITHMETIC MEAN TO COMBINE L-J SIGMA PARAMETERS
Info: BINARY COORDINATES     mobley_4884177_min.coor
Info: SUMMARY OF PARAMETERS:
Info: 9 BONDS
Info: 11 ANGLES
Info:   11 HARMONIC
Info:   0 COSINE-BASED
Info: 6 DIHEDRAL
Info: 0 IMPROPER
Info: 0 CROSSTERM
Info: 0 VDW
Info: 36 VDW_PAIRS
Info: 0 NBTHOLE_PAIRS
Info: STRUCTURE SUMMARY:
Info: 2960 ATOMS
Info: 2960 BONDS
Info: 28 ANGLES
Info: 40 DIHEDRALS
Info: 0 IMPROPERS
Info: 0 CROSSTERMS
Info: 3020 EXCLUSIONS
Info: 17 FIXED ATOMS
Info: 2952 RIGID BONDS
Info: 9 RIGID BONDS BETWEEN FIXED ATOMS
Info: 5886 DEGREES OF FREEDOM
Info: 989 HYDROGEN GROUPS
Info: 4 ATOMS IN LARGEST HYDROGEN GROUP
Info: 989 MIGRATION GROUPS
Info: 4 ATOMS IN LARGEST MIGRATION GROUP
Info: 8 HYDROGEN GROUPS WITH ALL ATOMS FIXED
Info: TOTAL MASS = 17780.8 amu
Info: TOTAL CHARGE = -0.000100033 e
Info: MASS DENSITY = 0.674805 g/cm^3
Info: ATOM DENSITY = 0.0676485 atoms/A^3
Info: ADDED 0 IMPLICIT EXCLUSIONS
Info: NONBONDED TABLE R-SQUARED SPACING: 0.0625
Info: NONBONDED TABLE SIZE: 705 POINTS
Info: REMOVING COM VELOCITY 0.0384261 0.0594183 0.0377626
TCL: Running for 100000 steps
ETITLE: TS BOND ANGLE DIHED IMPRP ELECT VDW BOUNDARY MISC KINETIC TOTAL TEMP POTENTIAL TOTAL3 TEMPAVG PRESSURE GPRESSURE VOLUME PRESSAVG GPRESSAVG
ENERGY: 0 0.0000 0.0000 0.0000 0.0000 -13708.3519 2367.3244 0.0000 0.0000 1769.3819 -9571.6457 302.5462 -11341.0276 -9571.2883 302.5462 172.3165 202.5524 43755.5868 172.3165 202.5524
ENERGY: 100000 0.0000 0.0000 0.0000 0.0000 -14270.1691 2457.1231 0.0000 0.0000 176.2395 -11636.8065 30.1351 -11813.0459 -11636.3353 30.8434 111.0070 177.1026 28373.4240 5.7945 5.8348
TCL: Running 100000 steps at 60 kelvin.
TCL: Setting parameter langevinTemp to 60
TCL: Running for 100000 steps
ETITLE: TS BOND ANGLE DIHED IMPRP ELECT VDW BOUNDARY MISC KINETIC TOTAL TEMP POTENTIAL TOTAL3 TEMPAVG PRESSURE GPRESSURE VOLUME PRESSAVG GPRESSAVG
ENERGY: 100000 0.0000 0.0000 0.0000 0.0000 -14270.1691 2457.1231 0.0000 0.0000 176.1462 -11636.8998 30.1192 -11813.0459 -11636.5266 30.1192 126.4344 177.0897 28373.4240 126.4344 177.0897
ENERGY: 200000 0.0000 0.0000 0.0000 0.0000 -14081.1385 2314.4821 0.0000 0.0000 357.9886 -11408.6679 61.2124 -11766.6564 -11407.5552 60.0581 -780.9676 -700.0652 28376.3915 4.7614 4.8593
TCL: Running 100000 steps at 90 kelvin.
TCL: Setting parameter langevinTemp to 90
TCL: Running for 100000 steps
ETITLE: TS BOND ANGLE DIHED IMPRP ELECT VDW BOUNDARY MISC KINETIC TOTAL TEMP POTENTIAL TOTAL3 TEMPAVG PRESSURE GPRESSURE VOLUME PRESSAVG GPRESSAVG
ENERGY: 200000 0.0000 0.0000 0.0000 0.0000 -14081.1385 2314.4821 0.0000 0.0000 357.8198 -11408.8367 61.1835 -11766.6564 -11407.9114 61.1835 -773.1156 -700.3336 28376.3915 -773.1156 -700.3336
ENERGY: 300000 0.0000 0.0000 0.0000 0.0000 -13826.0735 2176.1674 0.0000 0.0000 523.0736 -11126.8324 89.4402 -11649.9061 -11125.4836 89.8694 -1564.8863 -1517.3500 28790.3536 4.0921 4.1531
TCL: Running 100000 steps at 120 kelvin.
TCL: Setting parameter langevinTemp to 120
TCL: Running for 100000 steps
ETITLE: TS BOND ANGLE DIHED IMPRP ELECT VDW BOUNDARY MISC KINETIC TOTAL TEMP POTENTIAL TOTAL3 TEMPAVG PRESSURE GPRESSURE VOLUME PRESSAVG GPRESSAVG
ENERGY: 300000 0.0000 0.0000 0.0000 0.0000 -13826.0735 2176.1674 0.0000 0.0000 522.8162 -11127.0899 89.3962 -11649.9061 -11125.9786 89.3962 -1577.9899 -1517.0309 28790.3536 -1577.9899 -1517.0309
ENERGY: 400000 0.0000 0.0000 0.0000 0.0000 -13909.7620 2377.4272 0.0000 0.0000 706.5164 -10825.8183 120.8071 -11532.3348 -10824.5168 119.8744 516.9670 563.4466 28625.8501 3.9840 3.8387
TCL: Running 100000 steps at 150 kelvin.
TCL: Setting parameter langevinTemp to 150
TCL: Running for 100000 steps
ETITLE: TS BOND ANGLE DIHED IMPRP ELECT VDW BOUNDARY MISC KINETIC TOTAL TEMP POTENTIAL TOTAL3 TEMPAVG PRESSURE GPRESSURE VOLUME PRESSAVG GPRESSAVG
ENERGY: 400000 0.0000 0.0000 0.0000 0.0000 -13909.7620 2377.4272 0.0000 0.0000 706.1758 -10826.1589 120.7488 -11532.3348 -10825.0139 120.7488 505.2124 562.7244 28625.8501 505.2124 562.7244
ENERGY: 500000 0.0000 0.0000 0.0000 0.0000 -13701.4262 2348.9678 0.0000 0.0000 852.4573 -10500.0012 145.7615 -11352.4585 -10498.3428 150.1367 700.9391 759.3684 29007.2616 3.8559 3.7317
TCL: Running 100000 steps at 180 kelvin.
TCL: Setting parameter langevinTemp to 180
TCL: Running for 100000 steps
ETITLE: TS BOND ANGLE DIHED IMPRP ELECT VDW BOUNDARY MISC KINETIC TOTAL TEMP POTENTIAL TOTAL3 TEMPAVG PRESSURE GPRESSURE VOLUME PRESSAVG GPRESSAVG
ENERGY: 500000 0.0000 0.0000 0.0000 0.0000 -13701.4262 2348.9678 0.0000 0.0000 852.0425 -10500.4160 145.6905 -11352.4585 -10498.8052 145.6905 723.6835 759.0012 29007.2616 723.6835 759.0012
ENERGY: 600000 0.0000 0.0000 0.0000 0.0000 -13267.8675 2160.7072 0.0000 0.0000 1044.2349 -10062.9254 178.5535 -11107.1603 -10060.3038 179.6571 189.7808 258.8505 28812.9351 3.1373 3.1271
TCL: Running 100000 steps at 210 kelvin.
TCL: Setting parameter langevinTemp to 210
TCL: Running for 100000 steps
ETITLE: TS BOND ANGLE DIHED IMPRP ELECT VDW BOUNDARY MISC KINETIC TOTAL TEMP POTENTIAL TOTAL3 TEMPAVG PRESSURE GPRESSURE VOLUME PRESSAVG GPRESSAVG
ENERGY: 600000 0.0000 0.0000 0.0000 0.0000 -13267.8675 2160.7072 0.0000 0.0000 1043.7171 -10063.4432 178.4650 -11107.1603 -10061.5425 178.4650 226.7548 260.0582 28812.9351 226.7548 260.0582
ENERGY: 700000 0.0000 0.0000 0.0000 0.0000 -12584.3686 1981.5618 0.0000 0.0000 1253.0771 -9349.7297 214.2634 -10602.8068 -9347.0145 210.0351 720.6791 806.3347 28780.0401 3.9940 3.8487
TCL: Running 100000 steps at 240 kelvin.
TCL: Setting parameter langevinTemp to 240
TCL: Running for 100000 steps
ETITLE: TS BOND ANGLE DIHED IMPRP ELECT VDW BOUNDARY MISC KINETIC TOTAL TEMP POTENTIAL TOTAL3 TEMPAVG PRESSURE GPRESSURE VOLUME PRESSAVG GPRESSAVG
ENERGY: 700000 0.0000 0.0000 0.0000 0.0000 -12584.3686 1981.5618 0.0000 0.0000 1252.4919 -9350.3149 214.1633 -10602.8068 -9348.6016 214.1633 747.4125 806.4294 28780.0401 747.4125 806.4294
ENERGY: 800000 0.0000 0.0000 0.0000 0.0000 -11845.0591 1674.6264 0.0000 0.0000 1337.8822 -8832.5505 228.7642 -10170.4327 -8830.2362 239.8257 -560.7633 -431.9339 29210.4572 3.0291 3.0569
TCL: Running 100000 steps at 270 kelvin.
TCL: Setting parameter langevinTemp to 270
TCL: Running for 100000 steps
ETITLE: TS BOND ANGLE DIHED IMPRP ELECT VDW BOUNDARY MISC KINETIC TOTAL TEMP POTENTIAL TOTAL3 TEMPAVG PRESSURE GPRESSURE VOLUME PRESSAVG GPRESSAVG
ENERGY: 800000 0.0000 0.0000 0.0000 0.0000 -11845.0591 1674.6264 0.0000 0.0000 1337.1725 -8833.2603 228.6428 -10170.4327 -8830.9925 228.6428 -503.9989 -432.5163 29210.4572 -503.9989 -432.5163
ENERGY: 900000 0.0000 0.0000 0.0000 0.0000 -11381.9566 1613.4337 0.0000 0.0000 1559.3919 -8209.1310 266.6401 -9768.5229 -8208.3248 269.9757 262.5501 391.3408 29562.8396 3.5407 3.6553
TCL: Running 1000000 steps at 300 kelvin.
TCL: Setting parameter langevinTemp to 300
TCL: Running for 1000000 steps
ETITLE: TS BOND ANGLE DIHED IMPRP ELECT VDW BOUNDARY MISC KINETIC TOTAL TEMP POTENTIAL TOTAL3 TEMPAVG PRESSURE GPRESSURE VOLUME PRESSAVG GPRESSAVG
ENERGY: 900000 0.0000 0.0000 0.0000 0.0000 -11381.9566 1613.4337 0.0000 0.0000 1558.6238 -8209.8990 266.5087 -9768.5229 -8207.6584 266.5087 286.1450 390.4632 29562.8396 286.1450 390.4632
ENERGY: 1100000 0.0000 0.0000 0.0000 0.0000 -10784.4674 1479.6834 0.0000 0.0000 1781.7682 -7523.0159 304.6641 -9304.7840 -7518.7718 300.1564 556.9677 637.5739 30290.0868 3.3309 3.3079
ENERGY: 1300000 0.0000 0.0000 0.0000 0.0000 -10848.8695 1489.2997 0.0000 0.0000 1800.2813 -7559.2885 307.8297 -9359.5698 -7553.8869 299.9007 519.7196 684.6635 30168.8997 3.3176 3.2598
ENERGY: 1500000 0.0000 0.0000 0.0000 0.0000 -10815.7794 1442.5476 0.0000 0.0000 1792.3853 -7580.8464 306.4796 -9373.2318 -7577.0617 300.2101 50.9692 117.2323 30312.9274 3.8699 3.8537
ENERGY: 1700000 0.0000 0.0000 0.0000 0.0000 -10747.8377 1376.7227 0.0000 0.0000 1768.3699 -7602.7451 302.3732 -9371.1150 -7598.7103 299.8087 -398.4125 -277.7285 30312.2352 2.4764 2.6570
ENERGY: 1900000 0.0000 0.0000 0.0000 0.0000 -10770.5548 1479.9141 0.0000 0.0000 1764.5591 -7526.0815 301.7216 -9290.6406 -7524.1200 300.5114 450.4482 513.8382 30617.0046 2.5065 2.2955
TCL: Exiting due to exit command.
