Info: SIMULATION PARAMETERS:
Info: TIMESTEP               2
Info: NUMBER OF STEPS        0
Info: STEPS PER CYCLE        10
Info: PERIODIC CELL BASIS 1  37.435 0 0
Info: PERIODIC CELL BASIS 2  0 36.451 0
Info: PERIODIC CELL BASIS 3  0 0 31.855
Info: PERIODIC CELL CENTER   0 0 0
Info: WRAPPING WATERS AROUND PERIODIC BOUNDARIES ON OUTPUT.
Info: WRAPPING ALL CLUSTERS AROUND PERIODIC BOUNDARIES ON OUTPUT.
Info: FIRST LDB TIMESTEP     50
Info: LAST LDB TIMESTEP     -1
Info: HOM BACKGROUND SCALING 1
Info: PME BACKGROUND SCALING 1
Info: MIN ATOMS PER PATCH    40
Info: EMPTY PATCH LOAD       40 ATOMS
Info: INITIAL TEMPERATURE    300
Info: CENTER OF MASS MOVING INITIALLY? NO
Info: DIELECTRIC             1
Info: EXCLUDE                SCALED ONE-FOUR
Info: 1-4 ELECTROSTATICS SCALED BY 0.833333
Info: MODIFIED 1-4 VDW PARAMETERS WILL BE USED
Info: DCD FILENAME           mobley_3169935_equil.dcd
Info: DCD FREQUENCY          100000
Info: DCD FIRST STEP         100000
Info: DCD FILE WILL CONTAIN UNIT CELL DATA
Info: XST FILENAME           mobley_3169935_equil.xst
Info: XST FREQUENCY          100000
Info: NO VELOCITY DCD OUTPUT
Info: NO FORCE DCD OUTPUT
Info: OUTPUT FILENAME        mobley_3169935_equil
Info: BINARY OUTPUT FILES WILL BE USED
Info: RESTART FILENAME       mobley_3169935_equil.restart
Info: RESTART FREQUENCY      100000
Info: BINARY RESTART FILES WILL BE USED
Info: CUTOFF                 9
Info: PAIRLIST DISTANCE      11
Info: PAIRLIST SHRINK RATE   0.01
Info: PAIRLIST GROW RATE     0.01
Info: PAIRLIST TRIGGER       0.3
Info: PAIRLISTS PER CYCLE    2
Info: PAIRLISTS ENABLED
Info: MARGIN                 8
Info: HYDROGEN GROUP CUTOFF  2.5
Info: PATCH DIMENSION        21.5
Info: ENERGY OUTPUT STEPS    100000
Info: ENERGY EVALUATION STEPS    100000
Info: OUTPUT ENERGY PRECISION 4
Info: CROSSTERM ENERGY INCLUDED IN DIHEDRAL
Info: TIMING OUTPUT STEPS    1000000
Info: PRESSURE OUTPUT STEPS  100000
Info: FIXED ATOMS ACTIVE
Info: LANGEVIN DYNAMICS ACTIVE
Info: LANGEVIN TEMPERATURE   30
Info: LANGEVIN USING BBK INTEGRATOR
Info: LANGEVIN DAMPING COEFFICIENT IS 1 INVERSE PS
Info: LANGEVIN DYNAMICS APPLIED TO HYDROGENS
Info: LANGEVIN PISTON PRESSURE CONTROL ACTIVE
Info:        TARGET PRESSURE IS 1.01325 BAR
Info:     OSCILLATION PERIOD IS 50 FS
Info:             DECAY TIME IS 25 FS
Info:     PISTON TEMPERATURE IS 300 K
Info:       PRESSURE CONTROL IS GROUP-BASED
Info:    INITIAL STRAIN RATE IS 0 0 0
Info:       CELL FLUCTUATION IS ISOTROPIC
Info: PARTICLE MESH EWALD (PME) ACTIVE
Info: PME TOLERANCE               1e-06
Info: PME EWALD COEFFICIENT       0.348832
Info: PME INTERPOLATION ORDER     4
Info: PME GRID DIMENSIONS         40 40 32
Info: PME MAXIMUM GRID SPACING    1
Info: FULL ELECTROSTATIC EVALUATION FREQUENCY      2
Info: USING VERLET I (r-RESPA) MTS SCHEME.
Info: C1 SPLITTING OF LONG RANGE ELECTROSTATICS
Info: PLACING ATOMS IN PATCHES BY HYDROGEN GROUPS
Info: RIGID BONDS TO HYDROGEN : ALL
Info:         ERROR TOLERANCE : 1e-08
Info:          MAX ITERATIONS : 100
Info: RIGID WATER USING SETTLE ALGORITHM
Info: RANDOM NUMBER SEED     1743730834
Info: USE HYDROGEN BONDS?    NO
Info: Using AMBER format force field!
Info: AMBER PARM FILE        mobley_3169935.prmtop
Info: COORDINATE PDB         mobley_3169935.pdb
Info: Exclusions will be read from PARM file!
Info: SCNB (VDW SCALING)     2
Info: USING ARITHMETIC MEAN TO COMBINE L-J SIGMA PARAMETERS
Info: BINARY COORDINATES     mobley_3169935_min.coor
Info: SUMMARY OF PARAMETERS:
Info: 7 BONDS
Info: 6 ANGLES
Info:   6 HARMONIC
Info:   0 COSINE-BASED
Info: 3 DIHEDRAL
Info: 0 IMPROPER
Info: 0 CROSSTERM
Info: 0 VDW
Info: 28 VDW_PAIRS
Info: 0 NBTHOLE_PAIRS
Info: STRUCTURE SUMMARY:
Info: 2957 ATOMS
Info: 2957 BONDS
Info: 21 ANGLES
Info: 35 DIHEDRALS
Info: 0 IMPROPERS
Info: 0 CROSSTERMS
Info: 3003 EXCLUSIONS
Info: 14 FIXED ATOMS
Info: 2949 RIGID BONDS
Info: 6 RIGID BONDS BETWEEN FIXED ATOMS
Info: 5886 DEGREES OF FREEDOM
Info: 989 HYDROGEN GROUPS
Info: 3 ATOMS IN LARGEST HYDROGEN GROUP
Info: 989 MIGRATION GROUPS
Info: 3 ATOMS IN LARGEST MIGRATION GROUP
Info: 8 HYDROGEN GROUPS WITH ALL ATOMS FIXED
Info: TOTAL MASS = 17801.3 amu
Info: TOTAL CHARGE = 0.000100028 e
Info: MASS DENSITY = 0.680057 g/cm^3
Info: ATOM DENSITY = 0.0680278 atoms/A^3
Info: ADDED 0 IMPLICIT EXCLUSIONS
Info: NONBONDED TABLE R-SQUARED SPACING: 0.0625
Info: NONBONDED TABLE SIZE: 705 POINTS
Info: REMOVING COM VELOCITY 0.0920253 -0.0179319 -0.208444
TCL: Running for 100000 steps
ETITLE: TS BOND ANGLE DIHED IMPRP ELECT VDW BOUNDARY MISC KINETIC TOTAL TEMP POTENTIAL TOTAL3 TEMPAVG PRESSURE GPRESSURE VOLUME PRESSAVG GPRESSAVG
ENERGY: 0 0.0000 0.0000 0.0000 0.0000 -13773.9882 2397.8995 0.0000 0.0000 1719.2145 -9656.8742 293.9681 -11376.0887 -9656.5328 293.9681 273.3561 305.5256 43467.5232 273.3561 305.5256
ENERGY: 100000 0.0000 0.0000 0.0000 0.0000 -14314.4830 2487.4027 0.0000 0.0000 176.3866 -11650.6937 30.1603 -11827.0803 -11650.2170 30.8466 -138.7354 -59.5406 29288.6335 4.6654 4.6782
TCL: Running 100000 steps at 60 kelvin.
TCL: Setting parameter langevinTemp to 60
TCL: Running for 100000 steps
ETITLE: TS BOND ANGLE DIHED IMPRP ELECT VDW BOUNDARY MISC KINETIC TOTAL TEMP POTENTIAL TOTAL3 TEMPAVG PRESSURE GPRESSURE VOLUME PRESSAVG GPRESSAVG
ENERGY: 100000 0.0000 0.0000 0.0000 0.0000 -14314.4830 2487.4027 0.0000 0.0000 176.3017 -11650.7786 30.1458 -11827.0803 -11650.3750 30.1458 -113.8345 -59.5630 29288.6335 -113.8345 -59.5630
ENERGY: 200000 0.0000 0.0000 0.0000 0.0000 -14057.8073 2291.8479 0.0000 0.0000 349.9745 -11415.9850 59.8421 -11765.9594 -11415.0258 60.0112 -1333.5838 -1264.2917 29062.5519 2.9555 2.9996
TCL: Running 100000 steps at 90 kelvin.
TCL: Setting parameter langevinTemp to 90
TCL: Running for 100000 steps
ETITLE: TS BOND ANGLE DIHED IMPRP ELECT VDW BOUNDARY MISC KINETIC TOTAL TEMP POTENTIAL TOTAL3 TEMPAVG PRESSURE GPRESSURE VOLUME PRESSAVG GPRESSAVG
ENERGY: 200000 0.0000 0.0000 0.0000 0.0000 -14057.8073 2291.8479 0.0000 0.0000 349.7927 -11416.1668 59.8110 -11765.9594 -11415.2903 59.8110 -1318.7612 -1264.2564 29062.5519 -1318.7612 -1264.2564
ENERGY: 300000 0.0000 0.0000 0.0000 0.0000 -14066.1539 2379.0209 0.0000 0.0000 524.7845 -11162.3485 89.7328 -11687.1330 -11160.8171 90.0046 -48.2759 -28.0813 28733.7869 4.4644 4.5407
TCL: Running 100000 steps at 120 kelvin.
TCL: Setting parameter langevinTemp to 120
TCL: Running for 100000 steps
ETITLE: TS BOND ANGLE DIHED IMPRP ELECT VDW BOUNDARY MISC KINETIC TOTAL TEMP POTENTIAL TOTAL3 TEMPAVG PRESSURE GPRESSURE VOLUME PRESSAVG GPRESSAVG
ENERGY: 300000 0.0000 0.0000 0.0000 0.0000 -14066.1539 2379.0209 0.0000 0.0000 524.5150 -11162.6179 89.6867 -11687.1330 -11161.4822 89.6867 -80.2064 -28.4119 28733.7869 -80.2064 -28.4119
ENERGY: 400000 0.0000 0.0000 0.0000 0.0000 -13959.0082 2390.7263 0.0000 0.0000 714.4343 -10853.8477 122.1609 -11568.2820 -10851.2394 119.9533 575.1656 612.2190 28436.7522 2.7706 2.7558
TCL: Running 100000 steps at 150 kelvin.
TCL: Setting parameter langevinTemp to 150
TCL: Running for 100000 steps
ETITLE: TS BOND ANGLE DIHED IMPRP ELECT VDW BOUNDARY MISC KINETIC TOTAL TEMP POTENTIAL TOTAL3 TEMPAVG PRESSURE GPRESSURE VOLUME PRESSAVG GPRESSAVG
ENERGY: 400000 0.0000 0.0000 0.0000 0.0000 -13959.0082 2390.7263 0.0000 0.0000 714.0946 -10854.1873 122.1029 -11568.2820 -10852.9814 122.1029 557.5667 613.3000 28436.7522 557.5667 613.3000
ENERGY: 500000 0.0000 0.0000 0.0000 0.0000 -13745.0535 2319.5159 0.0000 0.0000 855.9496 -10569.5880 146.3586 -11425.5376 -10567.1552 150.1909 489.1759 594.9501 28602.1769 5.1973 5.0802
TCL: Running 100000 steps at 180 kelvin.
TCL: Setting parameter langevinTemp to 180
TCL: Running for 100000 steps
ETITLE: TS BOND ANGLE DIHED IMPRP ELECT VDW BOUNDARY MISC KINETIC TOTAL TEMP POTENTIAL TOTAL3 TEMPAVG PRESSURE GPRESSURE VOLUME PRESSAVG GPRESSAVG
ENERGY: 500000 0.0000 0.0000 0.0000 0.0000 -13745.0535 2319.5159 0.0000 0.0000 855.5238 -10570.0138 146.2858 -11425.5376 -10568.5943 146.2858 538.6300 595.9892 28602.1769 538.6300 595.9892
ENERGY: 600000 0.0000 0.0000 0.0000 0.0000 -13136.6363 2040.8223 0.0000 0.0000 1045.4141 -10050.3999 178.7551 -11095.8140 -10048.2897 180.2871 -669.9302 -668.6969 29095.3337 3.1527 2.9685
TCL: Running 100000 steps at 210 kelvin.
TCL: Setting parameter langevinTemp to 210
TCL: Running for 100000 steps
ETITLE: TS BOND ANGLE DIHED IMPRP ELECT VDW BOUNDARY MISC KINETIC TOTAL TEMP POTENTIAL TOTAL3 TEMPAVG PRESSURE GPRESSURE VOLUME PRESSAVG GPRESSAVG
ENERGY: 600000 0.0000 0.0000 0.0000 0.0000 -13136.6363 2040.8223 0.0000 0.0000 1044.9036 -10050.9105 178.6678 -11095.8140 -10048.5580 178.6678 -730.7588 -670.7237 29095.3337 -730.7588 -670.7237
ENERGY: 700000 0.0000 0.0000 0.0000 0.0000 -12468.5294 1836.0734 0.0000 0.0000 1239.0046 -9393.4514 211.8571 -10632.4560 -9389.8011 210.0223 -900.5210 -781.8019 29384.1935 3.6691 3.6871
TCL: Running 100000 steps at 240 kelvin.
TCL: Setting parameter langevinTemp to 240
TCL: Running for 100000 steps
ETITLE: TS BOND ANGLE DIHED IMPRP ELECT VDW BOUNDARY MISC KINETIC TOTAL TEMP POTENTIAL TOTAL3 TEMPAVG PRESSURE GPRESSURE VOLUME PRESSAVG GPRESSAVG
ENERGY: 700000 0.0000 0.0000 0.0000 0.0000 -12468.5294 1836.0734 0.0000 0.0000 1238.3993 -9394.0567 211.7536 -10632.4560 -9391.6987 211.7536 -868.6750 -781.5201 29384.1935 -868.6750 -781.5201
ENERGY: 800000 0.0000 0.0000 0.0000 0.0000 -11853.0759 1679.1724 0.0000 0.0000 1407.0966 -8766.8070 240.5991 -10173.9035 -8764.6764 239.4974 -353.9564 -233.4554 29149.6791 3.3706 3.2180
TCL: Running 100000 steps at 270 kelvin.
TCL: Setting parameter langevinTemp to 270
TCL: Running for 100000 steps
ETITLE: TS BOND ANGLE DIHED IMPRP ELECT VDW BOUNDARY MISC KINETIC TOTAL TEMP POTENTIAL TOTAL3 TEMPAVG PRESSURE GPRESSURE VOLUME PRESSAVG GPRESSAVG
ENERGY: 800000 0.0000 0.0000 0.0000 0.0000 -11853.0759 1679.1724 0.0000 0.0000 1406.3806 -8767.5230 240.4767 -10173.9035 -8765.1777 240.4767 -311.2472 -235.7537 29149.6791 -311.2472 -235.7537
ENERGY: 900000 0.0000 0.0000 0.0000 0.0000 -11307.0212 1633.8458 0.0000 0.0000 1542.3750 -8130.8004 263.7303 -9673.1754 -8130.3583 269.7474 599.4709 649.2114 29908.0910 2.6812 2.8742
TCL: Running 1000000 steps at 300 kelvin.
TCL: Setting parameter langevinTemp to 300
TCL: Running for 1000000 steps
ETITLE: TS BOND ANGLE DIHED IMPRP ELECT VDW BOUNDARY MISC KINETIC TOTAL TEMP POTENTIAL TOTAL3 TEMPAVG PRESSURE GPRESSURE VOLUME PRESSAVG GPRESSAVG
ENERGY: 900000 0.0000 0.0000 0.0000 0.0000 -11307.0212 1633.8458 0.0000 0.0000 1541.5514 -8131.6240 263.5895 -9673.1754 -8129.0220 263.5895 571.8257 646.3095 29908.0910 571.8257 646.3095
ENERGY: 1100000 0.0000 0.0000 0.0000 0.0000 -10850.8999 1419.0538 0.0000 0.0000 1725.8721 -7705.9740 295.1065 -9431.8462 -7701.5073 300.6200 -319.2832 -156.3817 30096.2403 3.9728 3.9264
ENERGY: 1300000 0.0000 0.0000 0.0000 0.0000 -10721.4443 1364.9197 0.0000 0.0000 1737.5205 -7619.0040 297.0982 -9356.5246 -7613.6811 300.0166 -340.9745 -330.6986 30193.3682 3.3095 3.3214
ENERGY: 1500000 0.0000 0.0000 0.0000 0.0000 -10631.9601 1372.5576 0.0000 0.0000 1814.0924 -7445.3101 310.1912 -9259.4025 -7441.4659 300.4119 -419.9208 -347.5225 30752.8482 3.3887 3.2950
ENERGY: 1700000 0.0000 0.0000 0.0000 0.0000 -10704.7390 1379.4161 0.0000 0.0000 1788.5392 -7536.7838 305.8219 -9325.3229 -7534.0999 300.8727 -524.1408 -486.5359 30711.6956 4.1040 4.1745
ENERGY: 1900000 0.0000 0.0000 0.0000 0.0000 -10784.9711 1425.0032 0.0000 0.0000 1764.3115 -7595.6563 301.6792 -9359.9678 -7596.4124 299.8434 -92.1198 18.4109 30469.8638 2.0152 2.0517
TCL: Exiting due to exit command.
