Info: SIMULATION PARAMETERS:
Info: TIMESTEP               2
Info: NUMBER OF STEPS        0
Info: STEPS PER CYCLE        10
Info: PERIODIC CELL BASIS 1  36.592 0 0
Info: PERIODIC CELL BASIS 2  0 34.457 0
Info: PERIODIC CELL BASIS 3  0 0 34.68
Info: PERIODIC CELL CENTER   0 0 0
Info: WRAPPING WATERS AROUND PERIODIC BOUNDARIES ON OUTPUT.
Info: WRAPPING ALL CLUSTERS AROUND PERIODIC BOUNDARIES ON OUTPUT.
Info: FIRST LDB TIMESTEP     50
Info: LAST LDB TIMESTEP     -1
Info: HOM BACKGROUND SCALING 1
Info: PME BACKGROUND SCALING 1
Info: MIN ATOMS PER PATCH    40
Info: EMPTY PATCH LOAD       40 ATOMS
Info: INITIAL TEMPERATURE    300
Info: CENTER OF MASS MOVING INITIALLY? NO
Info: DIELECTRIC             1
Info: EXCLUDE                SCALED ONE-FOUR
Info: 1-4 ELECTROSTATICS SCALED BY 0.833333
Info: MODIFIED 1-4 VDW PARAMETERS WILL BE USED
Info: DCD FILENAME           mobley_1800170_equil.dcd
Info: DCD FREQUENCY          100000
Info: DCD FIRST STEP         100000
Info: DCD FILE WILL CONTAIN UNIT CELL DATA
Info: XST FILENAME           mobley_1800170_equil.xst
Info: XST FREQUENCY          100000
Info: NO VELOCITY DCD OUTPUT
Info: NO FORCE DCD OUTPUT
Info: OUTPUT FILENAME        mobley_1800170_equil
Info: BINARY OUTPUT FILES WILL BE USED
Info: RESTART FILENAME       mobley_1800170_equil.restart
Info: RESTART FREQUENCY      100000
Info: BINARY RESTART FILES WILL BE USED
Info: CUTOFF                 9
Info: PAIRLIST DISTANCE      11
Info: PAIRLIST SHRINK RATE   0.01
Info: PAIRLIST GROW RATE     0.01
Info: PAIRLIST TRIGGER       0.3
Info: PAIRLISTS PER CYCLE    2
Info: PAIRLISTS ENABLED
Info: MARGIN                 8
Info: HYDROGEN GROUP CUTOFF  2.5
Info: PATCH DIMENSION        21.5
Info: ENERGY OUTPUT STEPS    100000
Info: ENERGY EVALUATION STEPS    100000
Info: OUTPUT ENERGY PRECISION 4
Info: CROSSTERM ENERGY INCLUDED IN DIHEDRAL
Info: TIMING OUTPUT STEPS    1000000
Info: PRESSURE OUTPUT STEPS  100000
Info: FIXED ATOMS ACTIVE
Info: LANGEVIN DYNAMICS ACTIVE
Info: LANGEVIN TEMPERATURE   30
Info: LANGEVIN USING BBK INTEGRATOR
Info: LANGEVIN DAMPING COEFFICIENT IS 1 INVERSE PS
Info: LANGEVIN DYNAMICS APPLIED TO HYDROGENS
Info: LANGEVIN PISTON PRESSURE CONTROL ACTIVE
Info:        TARGET PRESSURE IS 1.01325 BAR
Info:     OSCILLATION PERIOD IS 50 FS
Info:             DECAY TIME IS 25 FS
Info:     PISTON TEMPERATURE IS 300 K
Info:       PRESSURE CONTROL IS GROUP-BASED
Info:    INITIAL STRAIN RATE IS 0 0 0
Info:       CELL FLUCTUATION IS ISOTROPIC
Info: PARTICLE MESH EWALD (PME) ACTIVE
Info: PME TOLERANCE               1e-06
Info: PME EWALD COEFFICIENT       0.348832
Info: PME INTERPOLATION ORDER     4
Info: PME GRID DIMENSIONS         40 36 36
Info: PME MAXIMUM GRID SPACING    1
Info: FULL ELECTROSTATIC EVALUATION FREQUENCY      2
Info: USING VERLET I (r-RESPA) MTS SCHEME.
Info: C1 SPLITTING OF LONG RANGE ELECTROSTATICS
Info: PLACING ATOMS IN PATCHES BY HYDROGEN GROUPS
Info: RIGID BONDS TO HYDROGEN : ALL
Info:         ERROR TOLERANCE : 1e-08
Info:          MAX ITERATIONS : 100
Info: RIGID WATER USING SETTLE ALGORITHM
Info: RANDOM NUMBER SEED     1743673957
Info: USE HYDROGEN BONDS?    NO
Info: Using AMBER format force field!
Info: AMBER PARM FILE        mobley_1800170.prmtop
Info: COORDINATE PDB         mobley_1800170.pdb
Info: Exclusions will be read from PARM file!
Info: SCNB (VDW SCALING)     2
Info: USING ARITHMETIC MEAN TO COMBINE L-J SIGMA PARAMETERS
Info: BINARY COORDINATES     mobley_1800170_min.coor
Info: SUMMARY OF PARAMETERS:
Info: 7 BONDS
Info: 7 ANGLES
Info:   7 HARMONIC
Info:   0 COSINE-BASED
Info: 2 DIHEDRAL
Info: 0 IMPROPER
Info: 0 CROSSTERM
Info: 0 VDW
Info: 28 VDW_PAIRS
Info: 0 NBTHOLE_PAIRS
Info: STRUCTURE SUMMARY:
Info: 2958 ATOMS
Info: 2957 BONDS
Info: 13 ANGLES
Info: 12 DIHEDRALS
Info: 0 IMPROPERS
Info: 0 CROSSTERMS
Info: 2982 EXCLUSIONS
Info: 9 FIXED ATOMS
Info: 2955 RIGID BONDS
Info: 6 RIGID BONDS BETWEEN FIXED ATOMS
Info: 5898 DEGREES OF FREEDOM
Info: 986 HYDROGEN GROUPS
Info: 4 ATOMS IN LARGEST HYDROGEN GROUP
Info: 986 MIGRATION GROUPS
Info: 4 ATOMS IN LARGEST MIGRATION GROUP
Info: 3 HYDROGEN GROUPS WITH ALL ATOMS FIXED
Info: TOTAL MASS = 17771.9 amu
Info: TOTAL CHARGE = 1.58325e-08 e
Info: MASS DENSITY = 0.674915 g/cm^3
Info: ATOM DENSITY = 0.0676481 atoms/A^3
Info: ADDED 0 IMPLICIT EXCLUSIONS
Info: NONBONDED TABLE R-SQUARED SPACING: 0.0625
Info: NONBONDED TABLE SIZE: 705 POINTS
Info: REMOVING COM VELOCITY 0.0631213 -0.21615 -0.188302
TCL: Running for 100000 steps
ETITLE: TS BOND ANGLE DIHED IMPRP ELECT VDW BOUNDARY MISC KINETIC TOTAL TEMP POTENTIAL TOTAL3 TEMPAVG PRESSURE GPRESSURE VOLUME PRESSAVG GPRESSAVG
ENERGY: 0 0.0000 0.0000 0.0000 0.0000 -13692.1158 2391.1302 0.0000 0.0000 1665.2573 -9635.7282 284.1626 -11300.9855 -9635.4227 284.1626 386.4645 424.3509 43726.2969 386.4645 424.3509
ENERGY: 100000 0.0000 0.0000 0.0000 0.0000 -14237.0500 2445.1816 0.0000 0.0000 175.8460 -11616.0224 30.0067 -11791.8685 -11615.4517 30.8664 -266.7542 -181.3919 28928.5010 4.0752 3.9772
TCL: Running 100000 steps at 60 kelvin.
TCL: Setting parameter langevinTemp to 60
TCL: Running for 100000 steps
ETITLE: TS BOND ANGLE DIHED IMPRP ELECT VDW BOUNDARY MISC KINETIC TOTAL TEMP POTENTIAL TOTAL3 TEMPAVG PRESSURE GPRESSURE VOLUME PRESSAVG GPRESSAVG
ENERGY: 100000 0.0000 0.0000 0.0000 0.0000 -14237.0500 2445.1816 0.0000 0.0000 175.7556 -11616.1129 29.9913 -11791.8685 -11615.7304 29.9913 -257.1675 -181.3955 28928.5010 -257.1675 -181.3955
ENERGY: 200000 0.0000 0.0000 0.0000 0.0000 -14106.5515 2363.5210 0.0000 0.0000 345.3324 -11397.6980 58.9282 -11743.0304 -11396.2885 59.9904 -797.3689 -740.7979 28949.7441 3.7831 3.7779
TCL: Running 100000 steps at 90 kelvin.
TCL: Setting parameter langevinTemp to 90
TCL: Running for 100000 steps
ETITLE: TS BOND ANGLE DIHED IMPRP ELECT VDW BOUNDARY MISC KINETIC TOTAL TEMP POTENTIAL TOTAL3 TEMPAVG PRESSURE GPRESSURE VOLUME PRESSAVG GPRESSAVG
ENERGY: 200000 0.0000 0.0000 0.0000 0.0000 -14106.5515 2363.5210 0.0000 0.0000 345.1534 -11397.8771 58.8976 -11743.0304 -11397.0586 58.8976 -798.7912 -740.5258 28949.7441 -798.7912 -740.5258
ENERGY: 300000 0.0000 0.0000 0.0000 0.0000 -14152.5357 2480.9462 0.0000 0.0000 528.8935 -11142.6961 90.2514 -11671.5896 -11140.5861 90.0935 566.1634 661.6135 28678.1727 4.7486 4.6908
TCL: Running 100000 steps at 120 kelvin.
TCL: Setting parameter langevinTemp to 120
TCL: Running for 100000 steps
ETITLE: TS BOND ANGLE DIHED IMPRP ELECT VDW BOUNDARY MISC KINETIC TOTAL TEMP POTENTIAL TOTAL3 TEMPAVG PRESSURE GPRESSURE VOLUME PRESSAVG GPRESSAVG
ENERGY: 300000 0.0000 0.0000 0.0000 0.0000 -14152.5357 2480.9462 0.0000 0.0000 528.6290 -11142.9606 90.2062 -11671.5896 -11141.9881 90.2062 605.5401 662.4224 28678.1727 605.5401 662.4224
ENERGY: 400000 0.0000 0.0000 0.0000 0.0000 -13750.1969 2234.3079 0.0000 0.0000 702.8921 -10812.9970 119.9428 -11515.8891 -10810.8075 120.0576 -932.6025 -849.6698 28937.9423 3.3689 3.3375
TCL: Running 100000 steps at 150 kelvin.
TCL: Setting parameter langevinTemp to 150
TCL: Running for 100000 steps
ETITLE: TS BOND ANGLE DIHED IMPRP ELECT VDW BOUNDARY MISC KINETIC TOTAL TEMP POTENTIAL TOTAL3 TEMPAVG PRESSURE GPRESSURE VOLUME PRESSAVG GPRESSAVG
ENERGY: 400000 0.0000 0.0000 0.0000 0.0000 -13750.1969 2234.3079 0.0000 0.0000 702.5285 -10813.3606 119.8808 -11515.8891 -10811.7500 119.8808 -896.8181 -849.3461 28937.9423 -896.8181 -849.3461
ENERGY: 500000 0.0000 0.0000 0.0000 0.0000 -13579.0052 2264.4623 0.0000 0.0000 862.4595 -10452.0835 147.1717 -11314.5430 -10450.5938 150.3826 -2.1596 70.4148 28984.6690 3.9120 4.0663
TCL: Running 100000 steps at 180 kelvin.
TCL: Setting parameter langevinTemp to 180
TCL: Running for 100000 steps
ETITLE: TS BOND ANGLE DIHED IMPRP ELECT VDW BOUNDARY MISC KINETIC TOTAL TEMP POTENTIAL TOTAL3 TEMPAVG PRESSURE GPRESSURE VOLUME PRESSAVG GPRESSAVG
ENERGY: 500000 0.0000 0.0000 0.0000 0.0000 -13579.0052 2264.4623 0.0000 0.0000 862.0130 -10452.5300 147.0955 -11314.5430 -10450.6125 147.0955 3.8538 69.7836 28984.6690 3.8538 69.7836
ENERGY: 600000 0.0000 0.0000 0.0000 0.0000 -13191.4346 2103.6338 0.0000 0.0000 1071.6327 -10016.1681 182.8654 -11087.8007 -10014.3065 179.9118 -215.5752 -160.0721 28877.7580 4.3732 4.4767
TCL: Running 100000 steps at 210 kelvin.
TCL: Setting parameter langevinTemp to 210
TCL: Running for 100000 steps
ETITLE: TS BOND ANGLE DIHED IMPRP ELECT VDW BOUNDARY MISC KINETIC TOTAL TEMP POTENTIAL TOTAL3 TEMPAVG PRESSURE GPRESSURE VOLUME PRESSAVG GPRESSAVG
ENERGY: 600000 0.0000 0.0000 0.0000 0.0000 -13191.4346 2103.6338 0.0000 0.0000 1071.1079 -10016.6929 182.7759 -11087.8007 -10014.5666 182.7759 -226.5522 -159.9136 28877.7580 -226.5522 -159.9136
ENERGY: 700000 0.0000 0.0000 0.0000 0.0000 -12644.0134 2017.2867 0.0000 0.0000 1227.8675 -9398.8592 209.5256 -10626.7267 -9395.8249 209.7071 638.9537 723.9760 28900.1590 4.3182 4.2712
TCL: Running 100000 steps at 240 kelvin.
TCL: Setting parameter langevinTemp to 240
TCL: Running for 100000 steps
ETITLE: TS BOND ANGLE DIHED IMPRP ELECT VDW BOUNDARY MISC KINETIC TOTAL TEMP POTENTIAL TOTAL3 TEMPAVG PRESSURE GPRESSURE VOLUME PRESSAVG GPRESSAVG
ENERGY: 700000 0.0000 0.0000 0.0000 0.0000 -12644.0134 2017.2867 0.0000 0.0000 1227.2521 -9399.4745 209.4206 -10626.7267 -9397.1757 209.4206 654.8839 724.0795 28900.1590 654.8839 724.0795
ENERGY: 800000 0.0000 0.0000 0.0000 0.0000 -11751.2496 1686.2335 0.0000 0.0000 1413.8670 -8651.1492 241.2649 -10065.0161 -8648.4461 240.0367 -40.9785 68.2266 28962.6240 3.4128 3.3478
TCL: Running 100000 steps at 270 kelvin.
TCL: Setting parameter langevinTemp to 270
TCL: Running for 100000 steps
ETITLE: TS BOND ANGLE DIHED IMPRP ELECT VDW BOUNDARY MISC KINETIC TOTAL TEMP POTENTIAL TOTAL3 TEMPAVG PRESSURE GPRESSURE VOLUME PRESSAVG GPRESSAVG
ENERGY: 800000 0.0000 0.0000 0.0000 0.0000 -11751.2496 1686.2335 0.0000 0.0000 1413.1832 -8651.8329 241.1482 -10065.0161 -8649.7868 241.1482 -26.2665 68.3104 28962.6240 -26.2665 68.3104
ENERGY: 900000 0.0000 0.0000 0.0000 0.0000 -11291.1961 1616.5469 0.0000 0.0000 1588.3108 -8086.3384 271.0323 -9674.6492 -8082.8480 270.2674 182.7090 260.8864 30022.8055 2.3367 2.4189
TCL: Running 1000000 steps at 300 kelvin.
TCL: Setting parameter langevinTemp to 300
TCL: Running for 1000000 steps
ETITLE: TS BOND ANGLE DIHED IMPRP ELECT VDW BOUNDARY MISC KINETIC TOTAL TEMP POTENTIAL TOTAL3 TEMPAVG PRESSURE GPRESSURE VOLUME PRESSAVG GPRESSAVG
ENERGY: 900000 0.0000 0.0000 0.0000 0.0000 -11291.1961 1616.5469 0.0000 0.0000 1587.5444 -8087.1048 270.9016 -9674.6492 -8085.4041 270.9016 169.8274 261.0358 30022.8055 169.8274 261.0358
ENERGY: 1100000 0.0000 0.0000 0.0000 0.0000 -10726.2123 1424.6592 0.0000 0.0000 1806.0498 -7495.5032 308.1877 -9301.5530 -7491.0712 299.8370 -187.9356 -77.5929 30694.3264 2.5857 2.5395
ENERGY: 1300000 0.0000 0.0000 0.0000 0.0000 -10954.7427 1568.4655 0.0000 0.0000 1705.3671 -7680.9102 291.0070 -9386.2773 -7679.9211 299.8016 783.3652 870.1011 30044.3599 3.9055 3.7683
ENERGY: 1500000 0.0000 0.0000 0.0000 0.0000 -10650.4671 1368.3708 0.0000 0.0000 1753.6451 -7528.4512 299.2453 -9282.0963 -7525.1230 299.9643 -649.2366 -520.3593 30644.4383 4.7287 4.6483
ENERGY: 1700000 0.0000 0.0000 0.0000 0.0000 -10688.8774 1414.3846 0.0000 0.0000 1703.9149 -7570.5779 290.7592 -9274.4928 -7564.8783 300.7511 -176.0980 -56.3993 30394.2612 2.9938 2.9754
ENERGY: 1900000 0.0000 0.0000 0.0000 0.0000 -10736.0309 1439.8199 0.0000 0.0000 1738.6264 -7557.5846 296.6825 -9296.2110 -7553.6281 299.7609 25.9830 92.9690 30336.1191 2.5031 2.4529
TCL: Exiting due to exit command.
