Info: SIMULATION PARAMETERS:
Info: TIMESTEP               2
Info: NUMBER OF STEPS        0
Info: STEPS PER CYCLE        10
Info: PERIODIC CELL BASIS 1  37.133 0 0
Info: PERIODIC CELL BASIS 2  0 34.696 0
Info: PERIODIC CELL BASIS 3  0 0 34.01
Info: PERIODIC CELL CENTER   0 0 0
Info: WRAPPING WATERS AROUND PERIODIC BOUNDARIES ON OUTPUT.
Info: WRAPPING ALL CLUSTERS AROUND PERIODIC BOUNDARIES ON OUTPUT.
Info: FIRST LDB TIMESTEP     50
Info: LAST LDB TIMESTEP     -1
Info: HOM BACKGROUND SCALING 1
Info: PME BACKGROUND SCALING 1
Info: MIN ATOMS PER PATCH    40
Info: EMPTY PATCH LOAD       40 ATOMS
Info: INITIAL TEMPERATURE    300
Info: CENTER OF MASS MOVING INITIALLY? NO
Info: DIELECTRIC             1
Info: EXCLUDE                SCALED ONE-FOUR
Info: 1-4 ELECTROSTATICS SCALED BY 0.833333
Info: MODIFIED 1-4 VDW PARAMETERS WILL BE USED
Info: DCD FILENAME           mobley_3982371_equil.dcd
Info: DCD FREQUENCY          100000
Info: DCD FIRST STEP         100000
Info: DCD FILE WILL CONTAIN UNIT CELL DATA
Info: XST FILENAME           mobley_3982371_equil.xst
Info: XST FREQUENCY          100000
Info: NO VELOCITY DCD OUTPUT
Info: NO FORCE DCD OUTPUT
Info: OUTPUT FILENAME        mobley_3982371_equil
Info: BINARY OUTPUT FILES WILL BE USED
Info: RESTART FILENAME       mobley_3982371_equil.restart
Info: RESTART FREQUENCY      100000
Info: BINARY RESTART FILES WILL BE USED
Info: CUTOFF                 9
Info: PAIRLIST DISTANCE      11
Info: PAIRLIST SHRINK RATE   0.01
Info: PAIRLIST GROW RATE     0.01
Info: PAIRLIST TRIGGER       0.3
Info: PAIRLISTS PER CYCLE    2
Info: PAIRLISTS ENABLED
Info: MARGIN                 8
Info: HYDROGEN GROUP CUTOFF  2.5
Info: PATCH DIMENSION        21.5
Info: ENERGY OUTPUT STEPS    100000
Info: ENERGY EVALUATION STEPS    100000
Info: OUTPUT ENERGY PRECISION 4
Info: CROSSTERM ENERGY INCLUDED IN DIHEDRAL
Info: TIMING OUTPUT STEPS    1000000
Info: PRESSURE OUTPUT STEPS  100000
Info: FIXED ATOMS ACTIVE
Info: LANGEVIN DYNAMICS ACTIVE
Info: LANGEVIN TEMPERATURE   30
Info: LANGEVIN USING BBK INTEGRATOR
Info: LANGEVIN DAMPING COEFFICIENT IS 1 INVERSE PS
Info: LANGEVIN DYNAMICS APPLIED TO HYDROGENS
Info: LANGEVIN PISTON PRESSURE CONTROL ACTIVE
Info:        TARGET PRESSURE IS 1.01325 BAR
Info:     OSCILLATION PERIOD IS 50 FS
Info:             DECAY TIME IS 25 FS
Info:     PISTON TEMPERATURE IS 300 K
Info:       PRESSURE CONTROL IS GROUP-BASED
Info:    INITIAL STRAIN RATE IS 0 0 0
Info:       CELL FLUCTUATION IS ISOTROPIC
Info: PARTICLE MESH EWALD (PME) ACTIVE
Info: PME TOLERANCE               1e-06
Info: PME EWALD COEFFICIENT       0.348832
Info: PME INTERPOLATION ORDER     4
Info: PME GRID DIMENSIONS         40 36 36
Info: PME MAXIMUM GRID SPACING    1
Info: FULL ELECTROSTATIC EVALUATION FREQUENCY      2
Info: USING VERLET I (r-RESPA) MTS SCHEME.
Info: C1 SPLITTING OF LONG RANGE ELECTROSTATICS
Info: PLACING ATOMS IN PATCHES BY HYDROGEN GROUPS
Info: RIGID BONDS TO HYDROGEN : ALL
Info:         ERROR TOLERANCE : 1e-08
Info:          MAX ITERATIONS : 100
Info: RIGID WATER USING SETTLE ALGORITHM
Info: RANDOM NUMBER SEED     1743684415
Info: USE HYDROGEN BONDS?    NO
Info: Using AMBER format force field!
Info: AMBER PARM FILE        mobley_3982371.prmtop
Info: COORDINATE PDB         mobley_3982371.pdb
Info: Exclusions will be read from PARM file!
Info: SCNB (VDW SCALING)     2
Info: USING ARITHMETIC MEAN TO COMBINE L-J SIGMA PARAMETERS
Info: BINARY COORDINATES     mobley_3982371_min.coor
Info: SUMMARY OF PARAMETERS:
Info: 8 BONDS
Info: 8 ANGLES
Info:   8 HARMONIC
Info:   0 COSINE-BASED
Info: 10 DIHEDRAL
Info: 0 IMPROPER
Info: 0 CROSSTERM
Info: 0 VDW
Info: 36 VDW_PAIRS
Info: 0 NBTHOLE_PAIRS
Info: STRUCTURE SUMMARY:
Info: 2933 ATOMS
Info: 2932 BONDS
Info: 16 ANGLES
Info: 21 DIHEDRALS
Info: 0 IMPROPERS
Info: 0 CROSSTERMS
Info: 2959 EXCLUSIONS
Info: 11 FIXED ATOMS
Info: 2928 RIGID BONDS
Info: 6 RIGID BONDS BETWEEN FIXED ATOMS
Info: 5844 DEGREES OF FREEDOM
Info: 979 HYDROGEN GROUPS
Info: 4 ATOMS IN LARGEST HYDROGEN GROUP
Info: 979 MIGRATION GROUPS
Info: 4 ATOMS IN LARGEST MIGRATION GROUP
Info: 5 HYDROGEN GROUPS WITH ALL ATOMS FIXED
Info: TOTAL MASS = 17621.7 amu
Info: TOTAL CHARGE = 0.000199992 e
Info: MASS DENSITY = 0.667821 g/cm^3
Info: ATOM DENSITY = 0.066937 atoms/A^3
Info: ADDED 0 IMPLICIT EXCLUSIONS
Info: NONBONDED TABLE R-SQUARED SPACING: 0.0625
Info: NONBONDED TABLE SIZE: 705 POINTS
Info: REMOVING COM VELOCITY 0.0106912 -0.00741869 0.012043
TCL: Running for 100000 steps
ETITLE: TS BOND ANGLE DIHED IMPRP ELECT VDW BOUNDARY MISC KINETIC TOTAL TEMP POTENTIAL TOTAL3 TEMPAVG PRESSURE GPRESSURE VOLUME PRESSAVG GPRESSAVG
ENERGY: 0 0.0000 0.0000 0.0000 0.0000 -13626.6581 2378.9187 0.0000 0.0000 1703.1176 -9544.6217 293.3086 -11247.7393 -9544.2858 293.3086 266.5615 304.3004 43817.3470 266.5615 304.3004
ENERGY: 100000 0.0000 0.0000 0.0000 0.0000 -14169.6203 2433.8101 0.0000 0.0000 174.3069 -11561.5033 30.0189 -11735.8102 -11561.0035 30.8987 -173.7397 -113.4671 28684.3673 3.1906 3.1691
TCL: Running 100000 steps at 60 kelvin.
TCL: Setting parameter langevinTemp to 60
TCL: Running for 100000 steps
ETITLE: TS BOND ANGLE DIHED IMPRP ELECT VDW BOUNDARY MISC KINETIC TOTAL TEMP POTENTIAL TOTAL3 TEMPAVG PRESSURE GPRESSURE VOLUME PRESSAVG GPRESSAVG
ENERGY: 100000 0.0000 0.0000 0.0000 0.0000 -14169.6203 2433.8101 0.0000 0.0000 174.2229 -11561.5873 30.0044 -11735.8102 -11561.1388 30.0044 -178.9310 -113.4835 28684.3673 -178.9310 -113.4835
ENERGY: 200000 0.0000 0.0000 0.0000 0.0000 -14212.5720 2540.2313 0.0000 0.0000 336.2347 -11336.1060 57.9059 -11672.3406 -11335.2284 59.9848 1182.7240 1211.4260 28152.6346 3.2588 3.3040
TCL: Running 100000 steps at 90 kelvin.
TCL: Setting parameter langevinTemp to 90
TCL: Running for 100000 steps
ETITLE: TS BOND ANGLE DIHED IMPRP ELECT VDW BOUNDARY MISC KINETIC TOTAL TEMP POTENTIAL TOTAL3 TEMPAVG PRESSURE GPRESSURE VOLUME PRESSAVG GPRESSAVG
ENERGY: 200000 0.0000 0.0000 0.0000 0.0000 -14212.5720 2540.2313 0.0000 0.0000 336.0624 -11336.2783 57.8762 -11672.3406 -11335.6713 57.8762 1154.8226 1212.0216 28152.6346 1154.8226 1212.0216
ENERGY: 300000 0.0000 0.0000 0.0000 0.0000 -14038.6374 2459.3282 0.0000 0.0000 523.5401 -11055.7691 90.1634 -11579.3092 -11055.1529 90.1108 701.5871 763.5402 28330.2295 5.4543 5.3446
TCL: Running 100000 steps at 120 kelvin.
TCL: Setting parameter langevinTemp to 120
TCL: Running for 100000 steps
ETITLE: TS BOND ANGLE DIHED IMPRP ELECT VDW BOUNDARY MISC KINETIC TOTAL TEMP POTENTIAL TOTAL3 TEMPAVG PRESSURE GPRESSURE VOLUME PRESSAVG GPRESSAVG
ENERGY: 300000 0.0000 0.0000 0.0000 0.0000 -14038.6374 2459.3282 0.0000 0.0000 523.2796 -11056.0296 90.1185 -11579.3092 -11054.9045 90.1185 705.6007 763.1400 28330.2295 705.6007 763.1400
ENERGY: 400000 0.0000 0.0000 0.0000 0.0000 -13733.4537 2268.7317 0.0000 0.0000 716.4537 -10748.2683 123.3867 -11464.7220 -10747.1874 120.1336 -530.4596 -485.2719 28766.0201 4.7461 4.6985
TCL: Running 100000 steps at 150 kelvin.
TCL: Setting parameter langevinTemp to 150
TCL: Running for 100000 steps
ETITLE: TS BOND ANGLE DIHED IMPRP ELECT VDW BOUNDARY MISC KINETIC TOTAL TEMP POTENTIAL TOTAL3 TEMPAVG PRESSURE GPRESSURE VOLUME PRESSAVG GPRESSAVG
ENERGY: 400000 0.0000 0.0000 0.0000 0.0000 -13733.4537 2268.7317 0.0000 0.0000 716.0929 -10748.6291 123.3246 -11464.7220 -10747.0103 123.3246 -532.8230 -486.7439 28766.0201 -532.8230 -486.7439
ENERGY: 500000 0.0000 0.0000 0.0000 0.0000 -13596.3284 2296.2044 0.0000 0.0000 888.7268 -10411.3972 153.0553 -11300.1240 -10409.8889 149.7793 248.1658 323.9818 28667.9913 4.1709 4.3457
TCL: Running 100000 steps at 180 kelvin.
TCL: Setting parameter langevinTemp to 180
TCL: Running for 100000 steps
ETITLE: TS BOND ANGLE DIHED IMPRP ELECT VDW BOUNDARY MISC KINETIC TOTAL TEMP POTENTIAL TOTAL3 TEMPAVG PRESSURE GPRESSURE VOLUME PRESSAVG GPRESSAVG
ENERGY: 500000 0.0000 0.0000 0.0000 0.0000 -13596.3284 2296.2044 0.0000 0.0000 888.2963 -10411.8277 152.9812 -11300.1240 -10410.1543 152.9812 249.5582 323.9087 28667.9913 249.5582 323.9087
ENERGY: 600000 0.0000 0.0000 0.0000 0.0000 -13004.0771 2041.8694 0.0000 0.0000 1057.0369 -9905.1708 182.0415 -10962.2077 -9901.6787 179.9756 -717.6992 -652.1452 29017.5120 5.3653 5.2877
TCL: Running 100000 steps at 210 kelvin.
TCL: Setting parameter langevinTemp to 210
TCL: Running for 100000 steps
ETITLE: TS BOND ANGLE DIHED IMPRP ELECT VDW BOUNDARY MISC KINETIC TOTAL TEMP POTENTIAL TOTAL3 TEMPAVG PRESSURE GPRESSURE VOLUME PRESSAVG GPRESSAVG
ENERGY: 600000 0.0000 0.0000 0.0000 0.0000 -13004.0771 2041.8694 0.0000 0.0000 1056.5317 -9905.6760 181.9545 -10962.2077 -9903.7579 181.9545 -724.1285 -651.0006 29017.5120 -724.1285 -651.0006
ENERGY: 700000 0.0000 0.0000 0.0000 0.0000 -12398.1986 1883.2153 0.0000 0.0000 1216.7691 -9298.2141 209.5503 -10514.9833 -9296.4616 210.0215 -275.8317 -224.8765 29046.6304 3.2922 3.2888
TCL: Running 100000 steps at 240 kelvin.
TCL: Setting parameter langevinTemp to 240
TCL: Running for 100000 steps
ETITLE: TS BOND ANGLE DIHED IMPRP ELECT VDW BOUNDARY MISC KINETIC TOTAL TEMP POTENTIAL TOTAL3 TEMPAVG PRESSURE GPRESSURE VOLUME PRESSAVG GPRESSAVG
ENERGY: 700000 0.0000 0.0000 0.0000 0.0000 -12398.1986 1883.2153 0.0000 0.0000 1216.1410 -9298.8423 209.4422 -10514.9833 -9296.4745 209.4422 -299.0726 -225.9150 29046.6304 -299.0726 -225.9150
ENERGY: 800000 0.0000 0.0000 0.0000 0.0000 -11902.9624 1825.8159 0.0000 0.0000 1406.0790 -8671.0676 242.1530 -10077.1466 -8669.7856 239.8909 1183.0176 1337.2329 28428.3457 2.4910 2.3031
TCL: Running 100000 steps at 270 kelvin.
TCL: Setting parameter langevinTemp to 270
TCL: Running for 100000 steps
ETITLE: TS BOND ANGLE DIHED IMPRP ELECT VDW BOUNDARY MISC KINETIC TOTAL TEMP POTENTIAL TOTAL3 TEMPAVG PRESSURE GPRESSURE VOLUME PRESSAVG GPRESSAVG
ENERGY: 800000 0.0000 0.0000 0.0000 0.0000 -11902.9624 1825.8159 0.0000 0.0000 1405.3839 -8671.7627 242.0333 -10077.1466 -8669.2746 242.0333 1258.8230 1335.4129 28428.3457 1258.8230 1335.4129
ENERGY: 900000 0.0000 0.0000 0.0000 0.0000 -11235.3994 1577.4936 0.0000 0.0000 1577.4427 -8080.4631 271.6651 -9657.9058 -8075.3817 269.7134 413.4552 474.8423 29218.0949 3.9216 3.8570
TCL: Running 1000000 steps at 300 kelvin.
TCL: Setting parameter langevinTemp to 300
TCL: Running for 1000000 steps
ETITLE: TS BOND ANGLE DIHED IMPRP ELECT VDW BOUNDARY MISC KINETIC TOTAL TEMP POTENTIAL TOTAL3 TEMPAVG PRESSURE GPRESSURE VOLUME PRESSAVG GPRESSAVG
ENERGY: 900000 0.0000 0.0000 0.0000 0.0000 -11235.3994 1577.4936 0.0000 0.0000 1576.6020 -8081.3039 271.5203 -9657.9058 -8079.1869 271.5203 389.6339 477.4164 29218.0949 389.6339 477.4164
ENERGY: 1100000 0.0000 0.0000 0.0000 0.0000 -10757.2763 1476.1125 0.0000 0.0000 1734.7121 -7546.4516 298.7498 -9281.1637 -7542.3309 300.3408 133.8963 217.5711 30623.8345 4.0404 4.0139
ENERGY: 1300000 0.0000 0.0000 0.0000 0.0000 -10753.3715 1441.0839 0.0000 0.0000 1740.1411 -7572.1465 299.6848 -9312.2876 -7568.0797 300.8735 -7.2743 88.5177 29930.1852 2.0658 1.9408
ENERGY: 1500000 0.0000 0.0000 0.0000 0.0000 -10772.5831 1486.1407 0.0000 0.0000 1805.7390 -7480.7033 310.9819 -9286.4424 -7480.0904 300.0061 637.7321 691.5717 29943.5225 4.2392 4.3105
ENERGY: 1700000 0.0000 0.0000 0.0000 0.0000 -10786.3542 1494.2581 0.0000 0.0000 1764.1085 -7527.9877 303.8124 -9292.0962 -7526.0960 300.1013 621.6167 702.0323 29813.5195 3.4073 3.6028
ENERGY: 1900000 0.0000 0.0000 0.0000 0.0000 -10627.6099 1394.6688 0.0000 0.0000 1776.1307 -7456.8105 305.8828 -9232.9411 -7454.5634 300.5930 -310.3824 -262.8014 30766.2713 3.0415 3.0650
TCL: Exiting due to exit command.
