Info: SIMULATION PARAMETERS:
Info: TIMESTEP               2
Info: NUMBER OF STEPS        0
Info: STEPS PER CYCLE        10
Info: PERIODIC CELL BASIS 1  37.435 0 0
Info: PERIODIC CELL BASIS 2  0 35.267 0
Info: PERIODIC CELL BASIS 3  0 0 32.492
Info: PERIODIC CELL CENTER   0 0 0
Info: WRAPPING WATERS AROUND PERIODIC BOUNDARIES ON OUTPUT.
Info: WRAPPING ALL CLUSTERS AROUND PERIODIC BOUNDARIES ON OUTPUT.
Info: FIRST LDB TIMESTEP     50
Info: LAST LDB TIMESTEP     -1
Info: HOM BACKGROUND SCALING 1
Info: PME BACKGROUND SCALING 1
Info: MIN ATOMS PER PATCH    40
Info: EMPTY PATCH LOAD       40 ATOMS
Info: INITIAL TEMPERATURE    300
Info: CENTER OF MASS MOVING INITIALLY? NO
Info: DIELECTRIC             1
Info: EXCLUDE                SCALED ONE-FOUR
Info: 1-4 ELECTROSTATICS SCALED BY 0.833333
Info: MODIFIED 1-4 VDW PARAMETERS WILL BE USED
Info: DCD FILENAME           mobley_9507933_equil.dcd
Info: DCD FREQUENCY          100000
Info: DCD FIRST STEP         100000
Info: DCD FILE WILL CONTAIN UNIT CELL DATA
Info: XST FILENAME           mobley_9507933_equil.xst
Info: XST FREQUENCY          100000
Info: NO VELOCITY DCD OUTPUT
Info: NO FORCE DCD OUTPUT
Info: OUTPUT FILENAME        mobley_9507933_equil
Info: BINARY OUTPUT FILES WILL BE USED
Info: RESTART FILENAME       mobley_9507933_equil.restart
Info: RESTART FREQUENCY      100000
Info: BINARY RESTART FILES WILL BE USED
Info: CUTOFF                 9
Info: PAIRLIST DISTANCE      11
Info: PAIRLIST SHRINK RATE   0.01
Info: PAIRLIST GROW RATE     0.01
Info: PAIRLIST TRIGGER       0.3
Info: PAIRLISTS PER CYCLE    2
Info: PAIRLISTS ENABLED
Info: MARGIN                 8
Info: HYDROGEN GROUP CUTOFF  2.5
Info: PATCH DIMENSION        21.5
Info: ENERGY OUTPUT STEPS    100000
Info: ENERGY EVALUATION STEPS    100000
Info: OUTPUT ENERGY PRECISION 4
Info: CROSSTERM ENERGY INCLUDED IN DIHEDRAL
Info: TIMING OUTPUT STEPS    1000000
Info: PRESSURE OUTPUT STEPS  100000
Info: FIXED ATOMS ACTIVE
Info: LANGEVIN DYNAMICS ACTIVE
Info: LANGEVIN TEMPERATURE   30
Info: LANGEVIN USING BBK INTEGRATOR
Info: LANGEVIN DAMPING COEFFICIENT IS 1 INVERSE PS
Info: LANGEVIN DYNAMICS APPLIED TO HYDROGENS
Info: LANGEVIN PISTON PRESSURE CONTROL ACTIVE
Info:        TARGET PRESSURE IS 1.01325 BAR
Info:     OSCILLATION PERIOD IS 50 FS
Info:             DECAY TIME IS 25 FS
Info:     PISTON TEMPERATURE IS 300 K
Info:       PRESSURE CONTROL IS GROUP-BASED
Info:    INITIAL STRAIN RATE IS 0 0 0
Info:       CELL FLUCTUATION IS ISOTROPIC
Info: PARTICLE MESH EWALD (PME) ACTIVE
Info: PME TOLERANCE               1e-06
Info: PME EWALD COEFFICIENT       0.348832
Info: PME INTERPOLATION ORDER     4
Info: PME GRID DIMENSIONS         40 36 36
Info: PME MAXIMUM GRID SPACING    1
Info: FULL ELECTROSTATIC EVALUATION FREQUENCY      2
Info: USING VERLET I (r-RESPA) MTS SCHEME.
Info: C1 SPLITTING OF LONG RANGE ELECTROSTATICS
Info: PLACING ATOMS IN PATCHES BY HYDROGEN GROUPS
Info: RIGID BONDS TO HYDROGEN : ALL
Info:         ERROR TOLERANCE : 1e-08
Info:          MAX ITERATIONS : 100
Info: RIGID WATER USING SETTLE ALGORITHM
Info: RANDOM NUMBER SEED     1743740261
Info: USE HYDROGEN BONDS?    NO
Info: Using AMBER format force field!
Info: AMBER PARM FILE        mobley_9507933.prmtop
Info: COORDINATE PDB         mobley_9507933.pdb
Info: Exclusions will be read from PARM file!
Info: SCNB (VDW SCALING)     2
Info: USING ARITHMETIC MEAN TO COMBINE L-J SIGMA PARAMETERS
Info: BINARY COORDINATES     mobley_9507933_min.coor
Info: SUMMARY OF PARAMETERS:
Info: 8 BONDS
Info: 10 ANGLES
Info:   10 HARMONIC
Info:   0 COSINE-BASED
Info: 4 DIHEDRAL
Info: 0 IMPROPER
Info: 0 CROSSTERM
Info: 0 VDW
Info: 36 VDW_PAIRS
Info: 0 NBTHOLE_PAIRS
Info: STRUCTURE SUMMARY:
Info: 2906 ATOMS
Info: 2906 BONDS
Info: 28 ANGLES
Info: 37 DIHEDRALS
Info: 0 IMPROPERS
Info: 0 CROSSTERMS
Info: 2963 EXCLUSIONS
Info: 17 FIXED ATOMS
Info: 2898 RIGID BONDS
Info: 9 RIGID BONDS BETWEEN FIXED ATOMS
Info: 5778 DEGREES OF FREEDOM
Info: 971 HYDROGEN GROUPS
Info: 4 ATOMS IN LARGEST HYDROGEN GROUP
Info: 971 MIGRATION GROUPS
Info: 4 ATOMS IN LARGEST MIGRATION GROUP
Info: 8 HYDROGEN GROUPS WITH ALL ATOMS FIXED
Info: TOTAL MASS = 17456.6 amu
Info: TOTAL CHARGE = -1.86265e-09 e
Info: MASS DENSITY = 0.675764 g/cm^3
Info: ATOM DENSITY = 0.0677443 atoms/A^3
Info: ADDED 0 IMPLICIT EXCLUSIONS
Info: NONBONDED TABLE R-SQUARED SPACING: 0.0625
Info: NONBONDED TABLE SIZE: 705 POINTS
Info: REMOVING COM VELOCITY -0.208588 -0.059567 -0.0511988
TCL: Running for 100000 steps
ETITLE: TS BOND ANGLE DIHED IMPRP ELECT VDW BOUNDARY MISC KINETIC TOTAL TEMP POTENTIAL TOTAL3 TEMPAVG PRESSURE GPRESSURE VOLUME PRESSAVG GPRESSAVG
ENERGY: 0 0.0000 0.0000 0.0000 0.0000 -13520.5578 2379.9007 0.0000 0.0000 1743.7633 -9396.8938 303.7389 -11140.6571 -9396.5356 303.7389 354.8249 381.8879 42896.5930 354.8249 381.8879
ENERGY: 100000 0.0000 0.0000 0.0000 0.0000 -14295.1867 2675.5829 0.0000 0.0000 168.7977 -11450.8062 29.4022 -11619.6039 -11450.2101 30.9233 2026.7657 2057.1566 28348.9880 3.1718 3.2215
TCL: Running 100000 steps at 60 kelvin.
TCL: Setting parameter langevinTemp to 60
TCL: Running for 100000 steps
ETITLE: TS BOND ANGLE DIHED IMPRP ELECT VDW BOUNDARY MISC KINETIC TOTAL TEMP POTENTIAL TOTAL3 TEMPAVG PRESSURE GPRESSURE VOLUME PRESSAVG GPRESSAVG
ENERGY: 100000 0.0000 0.0000 0.0000 0.0000 -14295.1867 2675.5829 0.0000 0.0000 168.7141 -11450.8898 29.3876 -11619.6039 -11450.5707 29.3876 1999.6110 2057.2287 28348.9880 1999.6110 2057.2287
ENERGY: 200000 0.0000 0.0000 0.0000 0.0000 -13854.8539 2335.2795 0.0000 0.0000 342.7779 -11176.7965 59.7071 -11519.5744 -11176.4465 59.9505 -562.5145 -543.3877 28811.2888 3.5289 3.5752
TCL: Running 100000 steps at 90 kelvin.
TCL: Setting parameter langevinTemp to 90
TCL: Running for 100000 steps
ETITLE: TS BOND ANGLE DIHED IMPRP ELECT VDW BOUNDARY MISC KINETIC TOTAL TEMP POTENTIAL TOTAL3 TEMPAVG PRESSURE GPRESSURE VOLUME PRESSAVG GPRESSAVG
ENERGY: 200000 0.0000 0.0000 0.0000 0.0000 -13854.8539 2335.2795 0.0000 0.0000 342.6085 -11176.9659 59.6775 -11519.5744 -11176.1762 59.6775 -603.6698 -544.0012 28811.2888 -603.6698 -544.0012
ENERGY: 300000 0.0000 0.0000 0.0000 0.0000 -13869.1961 2454.9680 0.0000 0.0000 503.6361 -10910.5920 87.7263 -11414.2281 -10909.6618 89.9431 887.1404 950.8755 28337.8239 3.4722 3.5657
TCL: Running 100000 steps at 120 kelvin.
TCL: Setting parameter langevinTemp to 120
TCL: Running for 100000 steps
ETITLE: TS BOND ANGLE DIHED IMPRP ELECT VDW BOUNDARY MISC KINETIC TOTAL TEMP POTENTIAL TOTAL3 TEMPAVG PRESSURE GPRESSURE VOLUME PRESSAVG GPRESSAVG
ENERGY: 300000 0.0000 0.0000 0.0000 0.0000 -13869.1961 2454.9680 0.0000 0.0000 503.3812 -10910.8470 87.6819 -11414.2281 -10909.9758 87.6819 907.1028 951.3487 28337.8239 907.1028 951.3487
ENERGY: 400000 0.0000 0.0000 0.0000 0.0000 -13570.6303 2288.1954 0.0000 0.0000 686.0401 -10596.3948 119.4985 -11282.4348 -10594.8081 119.9314 -70.4038 36.3130 28479.1346 3.9569 3.9819
TCL: Running 100000 steps at 150 kelvin.
TCL: Setting parameter langevinTemp to 150
TCL: Running for 100000 steps
ETITLE: TS BOND ANGLE DIHED IMPRP ELECT VDW BOUNDARY MISC KINETIC TOTAL TEMP POTENTIAL TOTAL3 TEMPAVG PRESSURE GPRESSURE VOLUME PRESSAVG GPRESSAVG
ENERGY: 400000 0.0000 0.0000 0.0000 0.0000 -13570.6303 2288.1954 0.0000 0.0000 685.6976 -10596.7373 119.4388 -11282.4348 -10595.1734 119.4388 -32.1777 35.9451 28479.1346 -32.1777 35.9451
ENERGY: 500000 0.0000 0.0000 0.0000 0.0000 -13540.4552 2350.5232 0.0000 0.0000 879.2028 -10310.7292 153.1447 -11189.9320 -10308.0551 149.7271 1204.2240 1205.0024 28204.3420 3.8071 3.8649
TCL: Running 100000 steps at 180 kelvin.
TCL: Setting parameter langevinTemp to 180
TCL: Running for 100000 steps
ETITLE: TS BOND ANGLE DIHED IMPRP ELECT VDW BOUNDARY MISC KINETIC TOTAL TEMP POTENTIAL TOTAL3 TEMPAVG PRESSURE GPRESSURE VOLUME PRESSAVG GPRESSAVG
ENERGY: 500000 0.0000 0.0000 0.0000 0.0000 -13540.4552 2350.5232 0.0000 0.0000 878.7567 -10311.1753 153.0670 -11189.9320 -10309.8398 153.0670 1151.9522 1206.1980 28204.3420 1151.9522 1206.1980
ENERGY: 600000 0.0000 0.0000 0.0000 0.0000 -12869.3026 2003.9020 0.0000 0.0000 1002.0054 -9863.3951 174.5352 -10865.4006 -9861.0512 179.4436 -704.3253 -583.1196 28521.6603 4.1866 4.1449
TCL: Running 100000 steps at 210 kelvin.
TCL: Setting parameter langevinTemp to 210
TCL: Running for 100000 steps
ETITLE: TS BOND ANGLE DIHED IMPRP ELECT VDW BOUNDARY MISC KINETIC TOTAL TEMP POTENTIAL TOTAL3 TEMPAVG PRESSURE GPRESSURE VOLUME PRESSAVG GPRESSAVG
ENERGY: 600000 0.0000 0.0000 0.0000 0.0000 -12869.3026 2003.9020 0.0000 0.0000 1001.5089 -9863.8917 174.4487 -10865.4006 -9862.3450 174.4487 -661.4432 -581.9977 28521.6603 -661.4432 -581.9977
ENERGY: 700000 0.0000 0.0000 0.0000 0.0000 -12139.6795 1749.0847 0.0000 0.0000 1163.4621 -9227.1327 202.6586 -10390.5948 -9224.5543 209.7892 -817.4024 -778.8365 28465.6102 4.2569 4.1302
TCL: Running 100000 steps at 240 kelvin.
TCL: Setting parameter langevinTemp to 240
TCL: Running for 100000 steps
ETITLE: TS BOND ANGLE DIHED IMPRP ELECT VDW BOUNDARY MISC KINETIC TOTAL TEMP POTENTIAL TOTAL3 TEMPAVG PRESSURE GPRESSURE VOLUME PRESSAVG GPRESSAVG
ENERGY: 700000 0.0000 0.0000 0.0000 0.0000 -12139.6795 1749.0847 0.0000 0.0000 1162.8422 -9227.7526 202.5506 -10390.5948 -9225.7349 202.5506 -847.3245 -780.2280 28465.6102 -847.3245 -780.2280
ENERGY: 800000 0.0000 0.0000 0.0000 0.0000 -11748.0924 1753.3807 0.0000 0.0000 1393.9862 -8600.7255 242.8127 -9994.7118 -8599.2355 240.2439 663.2558 671.8119 28535.0740 3.9637 3.7886
TCL: Running 100000 steps at 270 kelvin.
TCL: Setting parameter langevinTemp to 270
TCL: Running for 100000 steps
ETITLE: TS BOND ANGLE DIHED IMPRP ELECT VDW BOUNDARY MISC KINETIC TOTAL TEMP POTENTIAL TOTAL3 TEMPAVG PRESSURE GPRESSURE VOLUME PRESSAVG GPRESSAVG
ENERGY: 800000 0.0000 0.0000 0.0000 0.0000 -11748.0924 1753.3807 0.0000 0.0000 1393.2783 -8601.4335 242.6893 -9994.7118 -8598.9623 242.6893 605.4380 670.0339 28535.0740 605.4380 670.0339
ENERGY: 900000 0.0000 0.0000 0.0000 0.0000 -11028.9241 1449.1621 0.0000 0.0000 1523.8775 -8055.8845 265.4379 -9579.7620 -8050.6494 270.3315 -825.2636 -740.2272 29364.2100 4.8215 4.8300
TCL: Running 1000000 steps at 300 kelvin.
TCL: Setting parameter langevinTemp to 300
TCL: Running for 1000000 steps
ETITLE: TS BOND ANGLE DIHED IMPRP ELECT VDW BOUNDARY MISC KINETIC TOTAL TEMP POTENTIAL TOTAL3 TEMPAVG PRESSURE GPRESSURE VOLUME PRESSAVG GPRESSAVG
ENERGY: 900000 0.0000 0.0000 0.0000 0.0000 -11028.9241 1449.1621 0.0000 0.0000 1523.1060 -8056.6560 265.3035 -9579.7620 -8054.4784 265.3035 -829.0644 -738.1707 29364.2100 -829.0644 -738.1707
ENERGY: 1100000 0.0000 0.0000 0.0000 0.0000 -10647.4235 1441.8352 0.0000 0.0000 1757.5501 -7448.0381 306.1403 -9205.5883 -7444.8928 299.6226 -2.0453 104.8871 30290.8144 3.4093 3.2333
ENERGY: 1300000 0.0000 0.0000 0.0000 0.0000 -10575.6891 1381.7835 0.0000 0.0000 1751.9953 -7441.9103 305.1728 -9193.9056 -7439.2413 300.3582 -401.9328 -367.7565 30109.7272 3.7459 3.6613
ENERGY: 1500000 0.0000 0.0000 0.0000 0.0000 -10490.7593 1327.7026 0.0000 0.0000 1704.1480 -7458.9087 296.8385 -9163.0567 -7455.4975 299.9450 -790.1739 -752.6841 30314.2225 2.9370 2.7436
ENERGY: 1700000 0.0000 0.0000 0.0000 0.0000 -10697.4185 1454.6699 0.0000 0.0000 1765.1900 -7477.5586 307.4711 -9242.7486 -7474.8389 300.5418 408.0076 455.4083 29195.0927 3.9368 3.9035
ENERGY: 1900000 0.0000 0.0000 0.0000 0.0000 -10521.1402 1425.4091 0.0000 0.0000 1756.7160 -7339.0151 305.9951 -9095.7311 -7334.2480 300.2055 70.0203 154.1131 30440.2786 3.6131 3.7843
TCL: Exiting due to exit command.
