Info: SIMULATION PARAMETERS:
Info: TIMESTEP               2
Info: NUMBER OF STEPS        0
Info: STEPS PER CYCLE        10
Info: PERIODIC CELL BASIS 1  37.435 0 0
Info: PERIODIC CELL BASIS 2  0 35.847 0
Info: PERIODIC CELL BASIS 3  0 0 31.855
Info: PERIODIC CELL CENTER   0 0 0
Info: WRAPPING WATERS AROUND PERIODIC BOUNDARIES ON OUTPUT.
Info: WRAPPING ALL CLUSTERS AROUND PERIODIC BOUNDARIES ON OUTPUT.
Info: FIRST LDB TIMESTEP     50
Info: LAST LDB TIMESTEP     -1
Info: HOM BACKGROUND SCALING 1
Info: PME BACKGROUND SCALING 1
Info: MIN ATOMS PER PATCH    40
Info: EMPTY PATCH LOAD       40 ATOMS
Info: INITIAL TEMPERATURE    300
Info: CENTER OF MASS MOVING INITIALLY? NO
Info: DIELECTRIC             1
Info: EXCLUDE                SCALED ONE-FOUR
Info: 1-4 ELECTROSTATICS SCALED BY 0.833333
Info: MODIFIED 1-4 VDW PARAMETERS WILL BE USED
Info: DCD FILENAME           mobley_9557440_equil.dcd
Info: DCD FREQUENCY          100000
Info: DCD FIRST STEP         100000
Info: DCD FILE WILL CONTAIN UNIT CELL DATA
Info: XST FILENAME           mobley_9557440_equil.xst
Info: XST FREQUENCY          100000
Info: NO VELOCITY DCD OUTPUT
Info: NO FORCE DCD OUTPUT
Info: OUTPUT FILENAME        mobley_9557440_equil
Info: BINARY OUTPUT FILES WILL BE USED
Info: RESTART FILENAME       mobley_9557440_equil.restart
Info: RESTART FREQUENCY      100000
Info: BINARY RESTART FILES WILL BE USED
Info: CUTOFF                 9
Info: PAIRLIST DISTANCE      11
Info: PAIRLIST SHRINK RATE   0.01
Info: PAIRLIST GROW RATE     0.01
Info: PAIRLIST TRIGGER       0.3
Info: PAIRLISTS PER CYCLE    2
Info: PAIRLISTS ENABLED
Info: MARGIN                 8
Info: HYDROGEN GROUP CUTOFF  2.5
Info: PATCH DIMENSION        21.5
Info: ENERGY OUTPUT STEPS    100000
Info: ENERGY EVALUATION STEPS    100000
Info: OUTPUT ENERGY PRECISION 4
Info: CROSSTERM ENERGY INCLUDED IN DIHEDRAL
Info: TIMING OUTPUT STEPS    1000000
Info: PRESSURE OUTPUT STEPS  100000
Info: FIXED ATOMS ACTIVE
Info: LANGEVIN DYNAMICS ACTIVE
Info: LANGEVIN TEMPERATURE   30
Info: LANGEVIN USING BBK INTEGRATOR
Info: LANGEVIN DAMPING COEFFICIENT IS 1 INVERSE PS
Info: LANGEVIN DYNAMICS APPLIED TO HYDROGENS
Info: LANGEVIN PISTON PRESSURE CONTROL ACTIVE
Info:        TARGET PRESSURE IS 1.01325 BAR
Info:     OSCILLATION PERIOD IS 50 FS
Info:             DECAY TIME IS 25 FS
Info:     PISTON TEMPERATURE IS 300 K
Info:       PRESSURE CONTROL IS GROUP-BASED
Info:    INITIAL STRAIN RATE IS 0 0 0
Info:       CELL FLUCTUATION IS ISOTROPIC
Info: PARTICLE MESH EWALD (PME) ACTIVE
Info: PME TOLERANCE               1e-06
Info: PME EWALD COEFFICIENT       0.348832
Info: PME INTERPOLATION ORDER     4
Info: PME GRID DIMENSIONS         40 36 32
Info: PME MAXIMUM GRID SPACING    1
Info: FULL ELECTROSTATIC EVALUATION FREQUENCY      2
Info: USING VERLET I (r-RESPA) MTS SCHEME.
Info: C1 SPLITTING OF LONG RANGE ELECTROSTATICS
Info: PLACING ATOMS IN PATCHES BY HYDROGEN GROUPS
Info: RIGID BONDS TO HYDROGEN : ALL
Info:         ERROR TOLERANCE : 1e-08
Info:          MAX ITERATIONS : 100
Info: RIGID WATER USING SETTLE ALGORITHM
Info: RANDOM NUMBER SEED     1743727258
Info: USE HYDROGEN BONDS?    NO
Info: Using AMBER format force field!
Info: AMBER PARM FILE        mobley_9557440.prmtop
Info: COORDINATE PDB         mobley_9557440.pdb
Info: Exclusions will be read from PARM file!
Info: SCNB (VDW SCALING)     2
Info: USING ARITHMETIC MEAN TO COMBINE L-J SIGMA PARAMETERS
Info: BINARY COORDINATES     mobley_9557440_min.coor
Info: SUMMARY OF PARAMETERS:
Info: 10 BONDS
Info: 14 ANGLES
Info:   14 HARMONIC
Info:   0 COSINE-BASED
Info: 7 DIHEDRAL
Info: 0 IMPROPER
Info: 0 CROSSTERM
Info: 0 VDW
Info: 36 VDW_PAIRS
Info: 0 NBTHOLE_PAIRS
Info: STRUCTURE SUMMARY:
Info: 2964 ATOMS
Info: 2964 BONDS
Info: 18 ANGLES
Info: 33 DIHEDRALS
Info: 0 IMPROPERS
Info: 0 CROSSTERMS
Info: 3003 EXCLUSIONS
Info: 12 FIXED ATOMS
Info: 2955 RIGID BONDS
Info: 3 RIGID BONDS BETWEEN FIXED ATOMS
Info: 5904 DEGREES OF FREEDOM
Info: 993 HYDROGEN GROUPS
Info: 3 ATOMS IN LARGEST HYDROGEN GROUP
Info: 993 MIGRATION GROUPS
Info: 3 ATOMS IN LARGEST MIGRATION GROUP
Info: 9 HYDROGEN GROUPS WITH ALL ATOMS FIXED
Info: TOTAL MASS = 17874.3 amu
Info: TOTAL CHARGE = 0.000100046 e
Info: MASS DENSITY = 0.694352 g/cm^3
Info: ATOM DENSITY = 0.0693378 atoms/A^3
Info: ADDED 0 IMPLICIT EXCLUSIONS
Info: NONBONDED TABLE R-SQUARED SPACING: 0.0625
Info: NONBONDED TABLE SIZE: 705 POINTS
Info: REMOVING COM VELOCITY 0.0392811 0.184592 -0.162289
TCL: Running for 100000 steps
ETITLE: TS BOND ANGLE DIHED IMPRP ELECT VDW BOUNDARY MISC KINETIC TOTAL TEMP POTENTIAL TOTAL3 TEMPAVG PRESSURE GPRESSURE VOLUME PRESSAVG GPRESSAVG
ENERGY: 0 0.0000 0.0000 0.0000 0.0000 -14021.0522 2417.4817 0.0000 0.0000 1753.5901 -9849.9804 298.9318 -11603.5705 -9849.6211 298.9318 296.1654 316.8489 42747.2580 296.1654 316.8489
ENERGY: 100000 0.0000 0.0000 0.0000 0.0000 -14504.3544 2526.0185 0.0000 0.0000 175.8136 -11802.5222 29.9707 -11978.3358 -11802.0754 30.8204 363.2576 460.7649 29127.6348 3.8433 3.8284
TCL: Running 100000 steps at 60 kelvin.
TCL: Setting parameter langevinTemp to 60
TCL: Running for 100000 steps
ETITLE: TS BOND ANGLE DIHED IMPRP ELECT VDW BOUNDARY MISC KINETIC TOTAL TEMP POTENTIAL TOTAL3 TEMPAVG PRESSURE GPRESSURE VOLUME PRESSAVG GPRESSAVG
ENERGY: 100000 0.0000 0.0000 0.0000 0.0000 -14504.3544 2526.0185 0.0000 0.0000 175.7232 -11802.6126 29.9553 -11978.3358 -11802.2636 29.9553 377.7520 460.8694 29127.6348 377.7520 460.8694
ENERGY: 200000 0.0000 0.0000 0.0000 0.0000 -14364.8386 2424.6826 0.0000 0.0000 344.3605 -11595.7955 58.7026 -11940.1560 -11594.7098 59.8094 -69.3947 10.5604 28748.1063 4.4998 4.5374
TCL: Running 100000 steps at 90 kelvin.
TCL: Setting parameter langevinTemp to 90
TCL: Running for 100000 steps
ETITLE: TS BOND ANGLE DIHED IMPRP ELECT VDW BOUNDARY MISC KINETIC TOTAL TEMP POTENTIAL TOTAL3 TEMPAVG PRESSURE GPRESSURE VOLUME PRESSAVG GPRESSAVG
ENERGY: 200000 0.0000 0.0000 0.0000 0.0000 -14364.8386 2424.6826 0.0000 0.0000 344.1833 -11595.9727 58.6724 -11940.1560 -11595.2230 58.6724 -45.1793 10.8971 28748.1063 -45.1793 10.8971
ENERGY: 300000 0.0000 0.0000 0.0000 0.0000 -14221.1231 2373.2928 0.0000 0.0000 531.2926 -11316.5377 90.5686 -11847.8303 -11314.9345 89.7256 -134.6419 -123.1939 28656.2325 5.0348 5.0891
TCL: Running 100000 steps at 120 kelvin.
TCL: Setting parameter langevinTemp to 120
TCL: Running for 100000 steps
ETITLE: TS BOND ANGLE DIHED IMPRP ELECT VDW BOUNDARY MISC KINETIC TOTAL TEMP POTENTIAL TOTAL3 TEMPAVG PRESSURE GPRESSURE VOLUME PRESSAVG GPRESSAVG
ENERGY: 300000 0.0000 0.0000 0.0000 0.0000 -14221.1231 2373.2928 0.0000 0.0000 531.0258 -11316.8044 90.5232 -11847.8303 -11315.7803 90.5232 -158.7639 -123.4250 28656.2325 -158.7639 -123.4250
ENERGY: 400000 0.0000 0.0000 0.0000 0.0000 -14215.8252 2479.0811 0.0000 0.0000 693.8614 -11042.8827 118.2815 -11736.7441 -11042.3968 119.8106 1396.0478 1450.2713 28280.4978 4.3747 4.4502
TCL: Running 100000 steps at 150 kelvin.
TCL: Setting parameter langevinTemp to 150
TCL: Running for 100000 steps
ETITLE: TS BOND ANGLE DIHED IMPRP ELECT VDW BOUNDARY MISC KINETIC TOTAL TEMP POTENTIAL TOTAL3 TEMPAVG PRESSURE GPRESSURE VOLUME PRESSAVG GPRESSAVG
ENERGY: 400000 0.0000 0.0000 0.0000 0.0000 -14215.8252 2479.0811 0.0000 0.0000 693.5243 -11043.2198 118.2240 -11736.7441 -11042.0286 118.2240 1388.8067 1448.8110 28280.4978 1388.8067 1448.8110
ENERGY: 500000 0.0000 0.0000 0.0000 0.0000 -13779.7109 2265.9798 0.0000 0.0000 875.2659 -10638.4652 149.2052 -11513.7311 -10635.9815 150.0818 158.4115 149.1472 28908.8382 3.8547 3.9564
TCL: Running 100000 steps at 180 kelvin.
TCL: Setting parameter langevinTemp to 180
TCL: Running for 100000 steps
ETITLE: TS BOND ANGLE DIHED IMPRP ELECT VDW BOUNDARY MISC KINETIC TOTAL TEMP POTENTIAL TOTAL3 TEMPAVG PRESSURE GPRESSURE VOLUME PRESSAVG GPRESSAVG
ENERGY: 500000 0.0000 0.0000 0.0000 0.0000 -13779.7109 2265.9798 0.0000 0.0000 874.8226 -10638.9085 149.1297 -11513.7311 -10636.9537 149.1297 94.3221 149.6604 28908.8382 94.3221 149.6604
ENERGY: 600000 0.0000 0.0000 0.0000 0.0000 -13443.7480 2148.9026 0.0000 0.0000 1055.7764 -10239.0689 179.9766 -11294.8454 -10236.7014 180.1449 -174.7558 -101.5172 29338.4599 4.6541 4.7686
TCL: Running 100000 steps at 210 kelvin.
TCL: Setting parameter langevinTemp to 210
TCL: Running for 100000 steps
ETITLE: TS BOND ANGLE DIHED IMPRP ELECT VDW BOUNDARY MISC KINETIC TOTAL TEMP POTENTIAL TOTAL3 TEMPAVG PRESSURE GPRESSURE VOLUME PRESSAVG GPRESSAVG
ENERGY: 600000 0.0000 0.0000 0.0000 0.0000 -13443.7480 2148.9026 0.0000 0.0000 1055.2245 -10239.6208 179.8825 -11294.8454 -10237.4746 179.8825 -156.5169 -101.8830 29338.4599 -156.5169 -101.8830
ENERGY: 700000 0.0000 0.0000 0.0000 0.0000 -12799.9323 2017.9638 0.0000 0.0000 1248.8045 -9533.1640 212.8818 -10781.9685 -9530.8870 210.0895 1045.2422 1075.5532 28571.9945 2.7513 2.7307
TCL: Running 100000 steps at 240 kelvin.
TCL: Setting parameter langevinTemp to 240
TCL: Running for 100000 steps
ETITLE: TS BOND ANGLE DIHED IMPRP ELECT VDW BOUNDARY MISC KINETIC TOTAL TEMP POTENTIAL TOTAL3 TEMPAVG PRESSURE GPRESSURE VOLUME PRESSAVG GPRESSAVG
ENERGY: 700000 0.0000 0.0000 0.0000 0.0000 -12799.9323 2017.9638 0.0000 0.0000 1248.2428 -9533.7256 212.7860 -10781.9685 -9531.8262 212.7860 996.0300 1074.4422 28571.9945 996.0300 1074.4422
ENERGY: 800000 0.0000 0.0000 0.0000 0.0000 -11911.5909 1663.2062 0.0000 0.0000 1338.8700 -8909.5147 228.2351 -10248.3847 -8904.2917 240.3031 -209.4732 -165.2187 29314.1063 2.3141 2.3917
TCL: Running 100000 steps at 270 kelvin.
TCL: Setting parameter langevinTemp to 270
TCL: Running for 100000 steps
ETITLE: TS BOND ANGLE DIHED IMPRP ELECT VDW BOUNDARY MISC KINETIC TOTAL TEMP POTENTIAL TOTAL3 TEMPAVG PRESSURE GPRESSURE VOLUME PRESSAVG GPRESSAVG
ENERGY: 800000 0.0000 0.0000 0.0000 0.0000 -11911.5909 1663.2062 0.0000 0.0000 1338.1584 -8910.2263 228.1138 -10248.3847 -8907.6667 228.1138 -240.9544 -163.7213 29314.1063 -240.9544 -163.7213
ENERGY: 900000 0.0000 0.0000 0.0000 0.0000 -11416.6711 1507.0185 0.0000 0.0000 1588.6897 -8320.9628 270.8215 -9909.6525 -8319.5283 270.0643 -654.3028 -588.5113 30095.1223 2.6274 2.6363
TCL: Running 1000000 steps at 300 kelvin.
TCL: Setting parameter langevinTemp to 300
TCL: Running for 1000000 steps
ETITLE: TS BOND ANGLE DIHED IMPRP ELECT VDW BOUNDARY MISC KINETIC TOTAL TEMP POTENTIAL TOTAL3 TEMPAVG PRESSURE GPRESSURE VOLUME PRESSAVG GPRESSAVG
ENERGY: 900000 0.0000 0.0000 0.0000 0.0000 -11416.6711 1507.0185 0.0000 0.0000 1587.9147 -8321.7379 270.6894 -9909.6525 -8319.0096 270.6894 -673.1471 -588.3144 30095.1223 -673.1471 -588.3144
ENERGY: 1100000 0.0000 0.0000 0.0000 0.0000 -10980.7498 1472.4178 0.0000 0.0000 1763.3166 -7745.0154 300.5899 -9508.3320 -7740.1709 300.3901 195.0217 347.0298 30458.3393 2.6192 2.6728
ENERGY: 1300000 0.0000 0.0000 0.0000 0.0000 -10986.0461 1374.9635 0.0000 0.0000 1733.7582 -7877.3244 295.5511 -9611.0826 -7869.8979 300.4178 -861.9215 -802.5141 30429.9502 3.2800 3.4350
ENERGY: 1500000 0.0000 0.0000 0.0000 0.0000 -10910.0038 1396.2570 0.0000 0.0000 1725.0426 -7788.7041 294.0654 -9513.7468 -7787.3543 300.4634 -483.2715 -392.6108 30654.2629 2.4195 2.6273
ENERGY: 1700000 0.0000 0.0000 0.0000 0.0000 -11023.2134 1555.9719 0.0000 0.0000 1740.9922 -7726.2493 296.7843 -9467.2415 -7723.5254 300.1251 645.0086 694.8207 31014.9669 2.6424 2.6670
ENERGY: 1900000 0.0000 0.0000 0.0000 0.0000 -10816.8869 1333.9508 0.0000 0.0000 1773.1035 -7709.8326 302.2582 -9482.9361 -7708.0987 299.8593 -676.5563 -632.1769 30487.1070 4.2982 4.1864
TCL: Exiting due to exit command.
