Info: SIMULATION PARAMETERS:
Info: TIMESTEP               2
Info: NUMBER OF STEPS        0
Info: STEPS PER CYCLE        10
Info: PERIODIC CELL BASIS 1  37.435 0 0
Info: PERIODIC CELL BASIS 2  0 35.779 0
Info: PERIODIC CELL BASIS 3  0 0 31.855
Info: PERIODIC CELL CENTER   0 0 0
Info: WRAPPING WATERS AROUND PERIODIC BOUNDARIES ON OUTPUT.
Info: WRAPPING ALL CLUSTERS AROUND PERIODIC BOUNDARIES ON OUTPUT.
Info: FIRST LDB TIMESTEP     50
Info: LAST LDB TIMESTEP     -1
Info: HOM BACKGROUND SCALING 1
Info: PME BACKGROUND SCALING 1
Info: MIN ATOMS PER PATCH    40
Info: EMPTY PATCH LOAD       40 ATOMS
Info: INITIAL TEMPERATURE    300
Info: CENTER OF MASS MOVING INITIALLY? NO
Info: DIELECTRIC             1
Info: EXCLUDE                SCALED ONE-FOUR
Info: 1-4 ELECTROSTATICS SCALED BY 0.833333
Info: MODIFIED 1-4 VDW PARAMETERS WILL BE USED
Info: DCD FILENAME           mobley_7599023_equil.dcd
Info: DCD FREQUENCY          100000
Info: DCD FIRST STEP         100000
Info: DCD FILE WILL CONTAIN UNIT CELL DATA
Info: XST FILENAME           mobley_7599023_equil.xst
Info: XST FREQUENCY          100000
Info: NO VELOCITY DCD OUTPUT
Info: NO FORCE DCD OUTPUT
Info: OUTPUT FILENAME        mobley_7599023_equil
Info: BINARY OUTPUT FILES WILL BE USED
Info: RESTART FILENAME       mobley_7599023_equil.restart
Info: RESTART FREQUENCY      100000
Info: BINARY RESTART FILES WILL BE USED
Info: CUTOFF                 9
Info: PAIRLIST DISTANCE      11
Info: PAIRLIST SHRINK RATE   0.01
Info: PAIRLIST GROW RATE     0.01
Info: PAIRLIST TRIGGER       0.3
Info: PAIRLISTS PER CYCLE    2
Info: PAIRLISTS ENABLED
Info: MARGIN                 8
Info: HYDROGEN GROUP CUTOFF  2.5
Info: PATCH DIMENSION        21.5
Info: ENERGY OUTPUT STEPS    100000
Info: ENERGY EVALUATION STEPS    100000
Info: OUTPUT ENERGY PRECISION 4
Info: CROSSTERM ENERGY INCLUDED IN DIHEDRAL
Info: TIMING OUTPUT STEPS    1000000
Info: PRESSURE OUTPUT STEPS  100000
Info: FIXED ATOMS ACTIVE
Info: LANGEVIN DYNAMICS ACTIVE
Info: LANGEVIN TEMPERATURE   30
Info: LANGEVIN USING BBK INTEGRATOR
Info: LANGEVIN DAMPING COEFFICIENT IS 1 INVERSE PS
Info: LANGEVIN DYNAMICS APPLIED TO HYDROGENS
Info: LANGEVIN PISTON PRESSURE CONTROL ACTIVE
Info:        TARGET PRESSURE IS 1.01325 BAR
Info:     OSCILLATION PERIOD IS 50 FS
Info:             DECAY TIME IS 25 FS
Info:     PISTON TEMPERATURE IS 300 K
Info:       PRESSURE CONTROL IS GROUP-BASED
Info:    INITIAL STRAIN RATE IS 0 0 0
Info:       CELL FLUCTUATION IS ISOTROPIC
Info: PARTICLE MESH EWALD (PME) ACTIVE
Info: PME TOLERANCE               1e-06
Info: PME EWALD COEFFICIENT       0.348832
Info: PME INTERPOLATION ORDER     4
Info: PME GRID DIMENSIONS         40 36 32
Info: PME MAXIMUM GRID SPACING    1
Info: FULL ELECTROSTATIC EVALUATION FREQUENCY      2
Info: USING VERLET I (r-RESPA) MTS SCHEME.
Info: C1 SPLITTING OF LONG RANGE ELECTROSTATICS
Info: PLACING ATOMS IN PATCHES BY HYDROGEN GROUPS
Info: RIGID BONDS TO HYDROGEN : ALL
Info:         ERROR TOLERANCE : 1e-08
Info:          MAX ITERATIONS : 100
Info: RIGID WATER USING SETTLE ALGORITHM
Info: RANDOM NUMBER SEED     1743727263
Info: USE HYDROGEN BONDS?    NO
Info: Using AMBER format force field!
Info: AMBER PARM FILE        mobley_7599023.prmtop
Info: COORDINATE PDB         mobley_7599023.pdb
Info: Exclusions will be read from PARM file!
Info: SCNB (VDW SCALING)     2
Info: USING ARITHMETIC MEAN TO COMBINE L-J SIGMA PARAMETERS
Info: BINARY COORDINATES     mobley_7599023_min.coor
Info: SUMMARY OF PARAMETERS:
Info: 5 BONDS
Info: 3 ANGLES
Info:   3 HARMONIC
Info:   0 COSINE-BASED
Info: 2 DIHEDRAL
Info: 0 IMPROPER
Info: 0 CROSSTERM
Info: 0 VDW
Info: 15 VDW_PAIRS
Info: 0 NBTHOLE_PAIRS
Info: STRUCTURE SUMMARY:
Info: 2955 ATOMS
Info: 2955 BONDS
Info: 18 ANGLES
Info: 30 DIHEDRALS
Info: 0 IMPROPERS
Info: 0 CROSSTERMS
Info: 2994 EXCLUSIONS
Info: 12 FIXED ATOMS
Info: 2948 RIGID BONDS
Info: 5 RIGID BONDS BETWEEN FIXED ATOMS
Info: 5886 DEGREES OF FREEDOM
Info: 988 HYDROGEN GROUPS
Info: 3 ATOMS IN LARGEST HYDROGEN GROUP
Info: 988 MIGRATION GROUPS
Info: 3 ATOMS IN LARGEST MIGRATION GROUP
Info: 7 HYDROGEN GROUPS WITH ALL ATOMS FIXED
Info: TOTAL MASS = 17830.7 amu
Info: TOTAL CHARGE = -5.58794e-09 e
Info: MASS DENSITY = 0.693975 g/cm^3
Info: ATOM DENSITY = 0.0692586 atoms/A^3
Info: ADDED 0 IMPLICIT EXCLUSIONS
Info: NONBONDED TABLE R-SQUARED SPACING: 0.0625
Info: NONBONDED TABLE SIZE: 705 POINTS
Info: REMOVING COM VELOCITY 0.0289112 -0.104865 0.0592844
TCL: Running for 100000 steps
ETITLE: TS BOND ANGLE DIHED IMPRP ELECT VDW BOUNDARY MISC KINETIC TOTAL TEMP POTENTIAL TOTAL3 TEMPAVG PRESSURE GPRESSURE VOLUME PRESSAVG GPRESSAVG
ENERGY: 0 0.0000 0.0000 0.0000 0.0000 -13693.0818 2377.8689 0.0000 0.0000 1810.3795 -9504.8333 309.5564 -11315.2128 -9504.4513 309.5564 264.8881 289.5415 42666.1686 264.8881 289.5415
ENERGY: 100000 0.0000 0.0000 0.0000 0.0000 -14216.9967 2427.3620 0.0000 0.0000 173.9198 -11615.7149 29.7385 -11789.6347 -11615.3385 30.9178 -406.4962 -358.3540 28811.1226 3.8403 3.9074
TCL: Running 100000 steps at 60 kelvin.
TCL: Setting parameter langevinTemp to 60
TCL: Running for 100000 steps
ETITLE: TS BOND ANGLE DIHED IMPRP ELECT VDW BOUNDARY MISC KINETIC TOTAL TEMP POTENTIAL TOTAL3 TEMPAVG PRESSURE GPRESSURE VOLUME PRESSAVG GPRESSAVG
ENERGY: 100000 0.0000 0.0000 0.0000 0.0000 -14216.9967 2427.3620 0.0000 0.0000 173.8368 -11615.7979 29.7243 -11789.6347 -11615.4416 29.7243 -413.0756 -358.3462 28811.1226 -413.0756 -358.3462
ENERGY: 200000 0.0000 0.0000 0.0000 0.0000 -14064.2056 2366.5321 0.0000 0.0000 344.7484 -11352.9251 58.9485 -11697.6735 -11352.0663 59.8017 -460.3481 -415.7159 28769.4088 2.4863 2.4429
TCL: Running 100000 steps at 90 kelvin.
TCL: Setting parameter langevinTemp to 90
TCL: Running for 100000 steps
ETITLE: TS BOND ANGLE DIHED IMPRP ELECT VDW BOUNDARY MISC KINETIC TOTAL TEMP POTENTIAL TOTAL3 TEMPAVG PRESSURE GPRESSURE VOLUME PRESSAVG GPRESSAVG
ENERGY: 200000 0.0000 0.0000 0.0000 0.0000 -14064.2056 2366.5321 0.0000 0.0000 344.5801 -11353.0934 58.9197 -11697.6735 -11352.4010 58.9197 -466.0402 -415.6830 28769.4088 -466.0402 -415.6830
ENERGY: 300000 0.0000 0.0000 0.0000 0.0000 -13799.6298 2205.2854 0.0000 0.0000 534.6924 -11059.6520 91.4269 -11594.3444 -11058.2053 90.0549 -1515.8238 -1432.1676 29002.2439 4.6672 4.5213
TCL: Running 100000 steps at 120 kelvin.
TCL: Setting parameter langevinTemp to 120
TCL: Running for 100000 steps
ETITLE: TS BOND ANGLE DIHED IMPRP ELECT VDW BOUNDARY MISC KINETIC TOTAL TEMP POTENTIAL TOTAL3 TEMPAVG PRESSURE GPRESSURE VOLUME PRESSAVG GPRESSAVG
ENERGY: 300000 0.0000 0.0000 0.0000 0.0000 -13799.6298 2205.2854 0.0000 0.0000 534.4274 -11059.9170 91.3816 -11594.3444 -11058.7617 91.3816 -1487.0323 -1432.5144 29002.2439 -1487.0323 -1432.5144
ENERGY: 400000 0.0000 0.0000 0.0000 0.0000 -13891.5335 2433.6686 0.0000 0.0000 697.2395 -10760.6254 119.2208 -11457.8649 -10758.8360 120.0714 978.1169 992.3545 28685.2515 4.2878 4.2973
TCL: Running 100000 steps at 150 kelvin.
TCL: Setting parameter langevinTemp to 150
TCL: Running for 100000 steps
ETITLE: TS BOND ANGLE DIHED IMPRP ELECT VDW BOUNDARY MISC KINETIC TOTAL TEMP POTENTIAL TOTAL3 TEMPAVG PRESSURE GPRESSURE VOLUME PRESSAVG GPRESSAVG
ENERGY: 400000 0.0000 0.0000 0.0000 0.0000 -13891.5335 2433.6686 0.0000 0.0000 696.8835 -10760.9814 119.1599 -11457.8649 -10759.8625 119.1599 950.9081 992.3815 28685.2515 950.9081 992.3815
ENERGY: 500000 0.0000 0.0000 0.0000 0.0000 -13522.6591 2190.2205 0.0000 0.0000 876.1621 -10456.2765 149.8148 -11332.4386 -10454.4402 149.9662 -560.3935 -503.2524 28791.5949 2.8683 2.8128
TCL: Running 100000 steps at 180 kelvin.
TCL: Setting parameter langevinTemp to 180
TCL: Running for 100000 steps
ETITLE: TS BOND ANGLE DIHED IMPRP ELECT VDW BOUNDARY MISC KINETIC TOTAL TEMP POTENTIAL TOTAL3 TEMPAVG PRESSURE GPRESSURE VOLUME PRESSAVG GPRESSAVG
ENERGY: 500000 0.0000 0.0000 0.0000 0.0000 -13522.6591 2190.2205 0.0000 0.0000 875.7348 -10456.7038 149.7417 -11332.4386 -10454.4991 149.7417 -547.4155 -504.2516 28791.5949 -547.4155 -504.2516
ENERGY: 600000 0.0000 0.0000 0.0000 0.0000 -13173.2438 2159.4817 0.0000 0.0000 1049.1163 -9964.6458 179.3882 -11013.7621 -9960.8416 180.1168 341.4806 437.4145 28865.4325 2.9591 2.9600
TCL: Running 100000 steps at 210 kelvin.
TCL: Setting parameter langevinTemp to 210
TCL: Running for 100000 steps
ETITLE: TS BOND ANGLE DIHED IMPRP ELECT VDW BOUNDARY MISC KINETIC TOTAL TEMP POTENTIAL TOTAL3 TEMPAVG PRESSURE GPRESSURE VOLUME PRESSAVG GPRESSAVG
ENERGY: 600000 0.0000 0.0000 0.0000 0.0000 -13173.2438 2159.4817 0.0000 0.0000 1048.5886 -9965.1735 179.2979 -11013.7621 -9963.5636 179.2979 383.9960 438.7624 28865.4325 383.9960 438.7624
ENERGY: 700000 0.0000 0.0000 0.0000 0.0000 -12410.0733 1947.2946 0.0000 0.0000 1256.2714 -9206.5073 214.8096 -10462.7787 -9202.3589 209.3121 907.4400 957.6759 28576.5008 4.6559 4.5364
TCL: Running 100000 steps at 240 kelvin.
TCL: Setting parameter langevinTemp to 240
TCL: Running for 100000 steps
ETITLE: TS BOND ANGLE DIHED IMPRP ELECT VDW BOUNDARY MISC KINETIC TOTAL TEMP POTENTIAL TOTAL3 TEMPAVG PRESSURE GPRESSURE VOLUME PRESSAVG GPRESSAVG
ENERGY: 700000 0.0000 0.0000 0.0000 0.0000 -12410.0733 1947.2946 0.0000 0.0000 1255.6849 -9207.0938 214.7093 -10462.7787 -9204.7169 214.7093 880.7869 958.7126 28576.5008 880.7869 958.7126
ENERGY: 800000 0.0000 0.0000 0.0000 0.0000 -11751.5270 1679.0270 0.0000 0.0000 1478.9626 -8593.5373 252.8875 -10072.5000 -8590.1230 240.1947 -106.8114 -18.9819 29071.2458 2.9157 2.8942
TCL: Running 100000 steps at 270 kelvin.
TCL: Setting parameter langevinTemp to 270
TCL: Running for 100000 steps
ETITLE: TS BOND ANGLE DIHED IMPRP ELECT VDW BOUNDARY MISC KINETIC TOTAL TEMP POTENTIAL TOTAL3 TEMPAVG PRESSURE GPRESSURE VOLUME PRESSAVG GPRESSAVG
ENERGY: 800000 0.0000 0.0000 0.0000 0.0000 -11751.5270 1679.0270 0.0000 0.0000 1478.2333 -8594.2667 252.7628 -10072.5000 -8592.1647 252.7628 -110.4129 -18.4465 29071.2458 -110.4129 -18.4465
ENERGY: 900000 0.0000 0.0000 0.0000 0.0000 -11415.0726 1690.9562 0.0000 0.0000 1595.6410 -8128.4754 272.8383 -9724.1164 -8125.6581 269.8732 1164.6617 1218.1921 29259.8104 3.1981 3.0878
TCL: Running 1000000 steps at 300 kelvin.
TCL: Setting parameter langevinTemp to 300
TCL: Running for 1000000 steps
ETITLE: TS BOND ANGLE DIHED IMPRP ELECT VDW BOUNDARY MISC KINETIC TOTAL TEMP POTENTIAL TOTAL3 TEMPAVG PRESSURE GPRESSURE VOLUME PRESSAVG GPRESSAVG
ENERGY: 900000 0.0000 0.0000 0.0000 0.0000 -11415.0726 1690.9562 0.0000 0.0000 1594.9047 -8129.2117 272.7124 -9724.1164 -8127.6891 272.7124 1130.6173 1218.4043 29259.8104 1130.6173 1218.4043
ENERGY: 1100000 0.0000 0.0000 0.0000 0.0000 -10745.2363 1458.4749 0.0000 0.0000 1772.1133 -7514.6482 303.0132 -9286.7615 -7509.8502 299.7840 86.9988 186.6795 30610.4879 2.2299 2.3934
ENERGY: 1300000 0.0000 0.0000 0.0000 0.0000 -10608.1112 1340.9961 0.0000 0.0000 1752.4729 -7514.6422 299.6549 -9267.1152 -7510.2926 300.3337 -606.7154 -562.5951 30459.7129 2.9622 2.9207
ENERGY: 1500000 0.0000 0.0000 0.0000 0.0000 -10599.4007 1393.1685 0.0000 0.0000 1773.2956 -7432.9367 303.2154 -9206.2322 -7428.9318 300.4870 -303.9733 -178.2815 31122.4984 3.3677 3.0441
ENERGY: 1700000 0.0000 0.0000 0.0000 0.0000 -10659.0392 1394.6955 0.0000 0.0000 1758.5346 -7505.8090 300.6914 -9264.3436 -7503.8870 300.1175 -31.2692 36.1391 30201.6470 2.8463 2.9432
ENERGY: 1900000 0.0000 0.0000 0.0000 0.0000 -10781.3236 1477.1244 0.0000 0.0000 1756.4794 -7547.7197 300.3400 -9304.1991 -7544.2796 300.1085 177.0172 263.9919 30583.6192 3.4142 3.4431
TCL: Exiting due to exit command.
