Info: SIMULATION PARAMETERS:
Info: TIMESTEP               2
Info: NUMBER OF STEPS        0
Info: STEPS PER CYCLE        10
Info: PERIODIC CELL BASIS 1  36.592 0 0
Info: PERIODIC CELL BASIS 2  0 34.26 0
Info: PERIODIC CELL BASIS 3  0 0 34.68
Info: PERIODIC CELL CENTER   0 0 0
Info: WRAPPING WATERS AROUND PERIODIC BOUNDARIES ON OUTPUT.
Info: WRAPPING ALL CLUSTERS AROUND PERIODIC BOUNDARIES ON OUTPUT.
Info: FIRST LDB TIMESTEP     50
Info: LAST LDB TIMESTEP     -1
Info: HOM BACKGROUND SCALING 1
Info: PME BACKGROUND SCALING 1
Info: MIN ATOMS PER PATCH    40
Info: EMPTY PATCH LOAD       40 ATOMS
Info: INITIAL TEMPERATURE    300
Info: CENTER OF MASS MOVING INITIALLY? NO
Info: DIELECTRIC             1
Info: EXCLUDE                SCALED ONE-FOUR
Info: 1-4 ELECTROSTATICS SCALED BY 0.833333
Info: MODIFIED 1-4 VDW PARAMETERS WILL BE USED
Info: DCD FILENAME           mobley_2049967_equil.dcd
Info: DCD FREQUENCY          100000
Info: DCD FIRST STEP         100000
Info: DCD FILE WILL CONTAIN UNIT CELL DATA
Info: XST FILENAME           mobley_2049967_equil.xst
Info: XST FREQUENCY          100000
Info: NO VELOCITY DCD OUTPUT
Info: NO FORCE DCD OUTPUT
Info: OUTPUT FILENAME        mobley_2049967_equil
Info: BINARY OUTPUT FILES WILL BE USED
Info: RESTART FILENAME       mobley_2049967_equil.restart
Info: RESTART FREQUENCY      100000
Info: BINARY RESTART FILES WILL BE USED
Info: CUTOFF                 9
Info: PAIRLIST DISTANCE      11
Info: PAIRLIST SHRINK RATE   0.01
Info: PAIRLIST GROW RATE     0.01
Info: PAIRLIST TRIGGER       0.3
Info: PAIRLISTS PER CYCLE    2
Info: PAIRLISTS ENABLED
Info: MARGIN                 8
Info: HYDROGEN GROUP CUTOFF  2.5
Info: PATCH DIMENSION        21.5
Info: ENERGY OUTPUT STEPS    100000
Info: ENERGY EVALUATION STEPS    100000
Info: OUTPUT ENERGY PRECISION 4
Info: CROSSTERM ENERGY INCLUDED IN DIHEDRAL
Info: TIMING OUTPUT STEPS    1000000
Info: PRESSURE OUTPUT STEPS  100000
Info: FIXED ATOMS ACTIVE
Info: LANGEVIN DYNAMICS ACTIVE
Info: LANGEVIN TEMPERATURE   30
Info: LANGEVIN USING BBK INTEGRATOR
Info: LANGEVIN DAMPING COEFFICIENT IS 1 INVERSE PS
Info: LANGEVIN DYNAMICS APPLIED TO HYDROGENS
Info: LANGEVIN PISTON PRESSURE CONTROL ACTIVE
Info:        TARGET PRESSURE IS 1.01325 BAR
Info:     OSCILLATION PERIOD IS 50 FS
Info:             DECAY TIME IS 25 FS
Info:     PISTON TEMPERATURE IS 300 K
Info:       PRESSURE CONTROL IS GROUP-BASED
Info:    INITIAL STRAIN RATE IS 0 0 0
Info:       CELL FLUCTUATION IS ISOTROPIC
Info: PARTICLE MESH EWALD (PME) ACTIVE
Info: PME TOLERANCE               1e-06
Info: PME EWALD COEFFICIENT       0.348832
Info: PME INTERPOLATION ORDER     4
Info: PME GRID DIMENSIONS         40 36 36
Info: PME MAXIMUM GRID SPACING    1
Info: FULL ELECTROSTATIC EVALUATION FREQUENCY      2
Info: USING VERLET I (r-RESPA) MTS SCHEME.
Info: C1 SPLITTING OF LONG RANGE ELECTROSTATICS
Info: PLACING ATOMS IN PATCHES BY HYDROGEN GROUPS
Info: RIGID BONDS TO HYDROGEN : ALL
Info:         ERROR TOLERANCE : 1e-08
Info:          MAX ITERATIONS : 100
Info: RIGID WATER USING SETTLE ALGORITHM
Info: RANDOM NUMBER SEED     1743900944
Info: USE HYDROGEN BONDS?    NO
Info: Using AMBER format force field!
Info: AMBER PARM FILE        mobley_2049967.prmtop
Info: COORDINATE PDB         mobley_2049967.pdb
Info: Exclusions will be read from PARM file!
Info: SCNB (VDW SCALING)     2
Info: USING ARITHMETIC MEAN TO COMBINE L-J SIGMA PARAMETERS
Info: BINARY COORDINATES     mobley_2049967_min.coor
Info: SUMMARY OF PARAMETERS:
Info: 6 BONDS
Info: 7 ANGLES
Info: 2 DIHEDRAL
Info: 0 IMPROPER
Info: 0 CROSSTERM
Info: 0 VDW
Info: 21 VDW_PAIRS
Info: 0 NBTHOLE_PAIRS
Info: STRUCTURE SUMMARY:
Info: 2922 ATOMS
Info: 2921 BONDS
Info: 19 ANGLES
Info: 15 DIHEDRALS
Info: 0 IMPROPERS
Info: 0 CROSSTERMS
Info: 2955 EXCLUSIONS
Info: 12 FIXED ATOMS
Info: 2918 RIGID BONDS
Info: 8 RIGID BONDS BETWEEN FIXED ATOMS
Info: 5820 DEGREES OF FREEDOM
Info: 974 HYDROGEN GROUPS
Info: 4 ATOMS IN LARGEST HYDROGEN GROUP
Info: 974 MIGRATION GROUPS
Info: 4 ATOMS IN LARGEST MIGRATION GROUP
Info: 4 HYDROGEN GROUPS WITH ALL ATOMS FIXED
Info: TOTAL MASS = 17551.7 amu
Info: TOTAL CHARGE = 9.99859e-05 e
Info: MASS DENSITY = 0.670386 g/cm^3
Info: ATOM DENSITY = 0.067209 atoms/A^3
Info: ADDED 0 IMPLICIT EXCLUSIONS
Info: NONBONDED TABLE R-SQUARED SPACING: 0.0625
Info: NONBONDED TABLE SIZE: 705 POINTS
Info: REMOVING COM VELOCITY 0.0572319 0.000237569 -0.0134475
TCL: Running for 100000 steps
ETITLE: TS BOND ANGLE DIHED IMPRP ELECT VDW BOUNDARY MISC KINETIC TOTAL TEMP POTENTIAL TOTAL3 TEMPAVG PRESSURE GPRESSURE VOLUME PRESSAVG GPRESSAVG
ENERGY: 0 0.0000 0.0000 0.0000 0.0000 -13539.7873 2388.8766 0.0000 0.0000 1763.6770 -9387.2337 304.9906 -11150.9106 -9386.8861 304.9906 491.4665 534.9050 43476.3018 491.4665 534.9050
ENERGY: 100000 0.0000 0.0000 0.0000 0.0000 -13985.0411 2367.7699 0.0000 0.0000 171.6565 -11445.6147 29.6844 -11617.2712 -11445.1930 30.8855 -680.7010 -638.0741 29147.0444 3.6614 3.7431
TCL: Running 100000 steps at 60 kelvin.
TCL: Setting parameter langevinTemp to 60
TCL: Running for 100000 steps
ETITLE: TS BOND ANGLE DIHED IMPRP ELECT VDW BOUNDARY MISC KINETIC TOTAL TEMP POTENTIAL TOTAL3 TEMPAVG PRESSURE GPRESSURE VOLUME PRESSAVG GPRESSAVG
ENERGY: 100000 0.0000 0.0000 0.0000 0.0000 -13985.0411 2367.7699 0.0000 0.0000 171.5660 -11445.7052 29.6687 -11617.2712 -11445.3157 29.6687 -680.3624 -638.0859 29147.0444 -680.3624 -638.0859
ENERGY: 200000 0.0000 0.0000 0.0000 0.0000 -13904.2696 2344.1489 0.0000 0.0000 363.9135 -11196.2072 62.9311 -11560.1207 -11195.3632 59.9191 -637.9253 -564.4596 28992.3778 4.9103 4.7601
TCL: Running 100000 steps at 90 kelvin.
TCL: Setting parameter langevinTemp to 90
TCL: Running for 100000 steps
ETITLE: TS BOND ANGLE DIHED IMPRP ELECT VDW BOUNDARY MISC KINETIC TOTAL TEMP POTENTIAL TOTAL3 TEMPAVG PRESSURE GPRESSURE VOLUME PRESSAVG GPRESSAVG
ENERGY: 200000 0.0000 0.0000 0.0000 0.0000 -13904.2696 2344.1489 0.0000 0.0000 363.7458 -11196.3749 62.9021 -11560.1207 -11195.7750 62.9021 -622.9404 -564.1792 28992.3778 -622.9404 -564.1792
ENERGY: 300000 0.0000 0.0000 0.0000 0.0000 -13824.5296 2362.6970 0.0000 0.0000 512.7145 -10949.1182 88.6631 -11461.8327 -10947.8944 89.7257 -216.7933 -178.8122 28821.0829 4.6050 4.6583
TCL: Running 100000 steps at 120 kelvin.
TCL: Setting parameter langevinTemp to 120
TCL: Running for 100000 steps
ETITLE: TS BOND ANGLE DIHED IMPRP ELECT VDW BOUNDARY MISC KINETIC TOTAL TEMP POTENTIAL TOTAL3 TEMPAVG PRESSURE GPRESSURE VOLUME PRESSAVG GPRESSAVG
ENERGY: 300000 0.0000 0.0000 0.0000 0.0000 -13824.5296 2362.6970 0.0000 0.0000 512.4640 -10949.3686 88.6198 -11461.8327 -10948.1234 88.6198 -235.7084 -179.0822 28821.0829 -235.7084 -179.0822
ENERGY: 400000 0.0000 0.0000 0.0000 0.0000 -13722.4004 2378.9302 0.0000 0.0000 705.1088 -10638.3613 121.9336 -11343.4701 -10636.6482 120.0293 472.4507 525.6917 28628.6675 3.2102 3.1497
TCL: Running 100000 steps at 150 kelvin.
TCL: Setting parameter langevinTemp to 150
TCL: Running for 100000 steps
ETITLE: TS BOND ANGLE DIHED IMPRP ELECT VDW BOUNDARY MISC KINETIC TOTAL TEMP POTENTIAL TOTAL3 TEMPAVG PRESSURE GPRESSURE VOLUME PRESSAVG GPRESSAVG
ENERGY: 400000 0.0000 0.0000 0.0000 0.0000 -13722.4004 2378.9302 0.0000 0.0000 704.7534 -10638.7167 121.8722 -11343.4701 -10637.4519 121.8722 467.6964 526.3907 28628.6675 467.6964 526.3907
ENERGY: 500000 0.0000 0.0000 0.0000 0.0000 -13397.6188 2223.8919 0.0000 0.0000 885.5044 -10288.2225 153.1292 -11173.7268 -10286.1351 150.0194 -306.1770 -240.6640 29033.7118 4.0969 3.9785
TCL: Running 100000 steps at 180 kelvin.
TCL: Setting parameter langevinTemp to 180
TCL: Running for 100000 steps
ETITLE: TS BOND ANGLE DIHED IMPRP ELECT VDW BOUNDARY MISC KINETIC TOTAL TEMP POTENTIAL TOTAL3 TEMPAVG PRESSURE GPRESSURE VOLUME PRESSAVG GPRESSAVG
ENERGY: 500000 0.0000 0.0000 0.0000 0.0000 -13397.6188 2223.8919 0.0000 0.0000 885.0742 -10288.6527 153.0548 -11173.7268 -10287.1451 153.0548 -308.3030 -239.7631 29033.7118 -308.3030 -239.7631
ENERGY: 600000 0.0000 0.0000 0.0000 0.0000 -13008.3632 2081.2047 0.0000 0.0000 1053.3500 -9873.8085 182.1546 -10927.1585 -9870.8117 179.7320 -416.5697 -308.1842 28810.6649 5.1716 5.1466
TCL: Running 100000 steps at 210 kelvin.
TCL: Setting parameter langevinTemp to 210
TCL: Running for 100000 steps
ETITLE: TS BOND ANGLE DIHED IMPRP ELECT VDW BOUNDARY MISC KINETIC TOTAL TEMP POTENTIAL TOTAL3 TEMPAVG PRESSURE GPRESSURE VOLUME PRESSAVG GPRESSAVG
ENERGY: 600000 0.0000 0.0000 0.0000 0.0000 -13008.3632 2081.2047 0.0000 0.0000 1052.8138 -9874.3447 182.0619 -10927.1585 -9872.3734 182.0619 -370.9341 -307.5375 28810.6649 -370.9341 -307.5375
ENERGY: 700000 0.0000 0.0000 0.0000 0.0000 -12242.1136 1848.5491 0.0000 0.0000 1222.0090 -9171.5555 211.3206 -10393.5645 -9167.5844 210.0965 -209.7154 -132.5196 28638.7683 4.4804 4.6498
TCL: Running 100000 steps at 240 kelvin.
TCL: Setting parameter langevinTemp to 240
TCL: Running for 100000 steps
ETITLE: TS BOND ANGLE DIHED IMPRP ELECT VDW BOUNDARY MISC KINETIC TOTAL TEMP POTENTIAL TOTAL3 TEMPAVG PRESSURE GPRESSURE VOLUME PRESSAVG GPRESSAVG
ENERGY: 700000 0.0000 0.0000 0.0000 0.0000 -12242.1136 1848.5491 0.0000 0.0000 1221.4035 -9172.1610 211.2159 -10393.5645 -9169.9467 211.2159 -206.8111 -131.0876 28638.7683 -206.8111 -131.0876
ENERGY: 800000 0.0000 0.0000 0.0000 0.0000 -11759.1817 1763.2928 0.0000 0.0000 1363.4691 -8632.4198 235.7831 -9995.8889 -8629.2867 239.7452 509.6845 573.4469 28745.2216 4.1599 4.1207
TCL: Running 100000 steps at 270 kelvin.
TCL: Setting parameter langevinTemp to 270
TCL: Running for 100000 steps
ETITLE: TS BOND ANGLE DIHED IMPRP ELECT VDW BOUNDARY MISC KINETIC TOTAL TEMP POTENTIAL TOTAL3 TEMPAVG PRESSURE GPRESSURE VOLUME PRESSAVG GPRESSAVG
ENERGY: 800000 0.0000 0.0000 0.0000 0.0000 -11759.1817 1763.2928 0.0000 0.0000 1362.7689 -8633.1200 235.6620 -9995.8889 -8631.3856 235.6620 487.7790 575.2086 28745.2216 487.7790 575.2086
ENERGY: 900000 0.0000 0.0000 0.0000 0.0000 -11104.5622 1489.8112 0.0000 0.0000 1598.9135 -8015.8376 276.4982 -9614.7510 -8014.5876 269.6309 -561.9033 -575.1977 29374.7943 2.3629 2.3145
TCL: Running 1000000 steps at 300 kelvin.
TCL: Setting parameter langevinTemp to 300
TCL: Running for 1000000 steps
ETITLE: TS BOND ANGLE DIHED IMPRP ELECT VDW BOUNDARY MISC KINETIC TOTAL TEMP POTENTIAL TOTAL3 TEMPAVG PRESSURE GPRESSURE VOLUME PRESSAVG GPRESSAVG
ENERGY: 900000 0.0000 0.0000 0.0000 0.0000 -11104.5622 1489.8112 0.0000 0.0000 1598.1015 -8016.6495 276.3578 -9614.7510 -8014.3132 276.3578 -664.0765 -576.4151 29374.7943 -664.0765 -576.4151
ENERGY: 1100000 0.0000 0.0000 0.0000 0.0000 -10499.9730 1285.2133 0.0000 0.0000 1733.8414 -7480.9183 299.8312 -9214.7597 -7476.3808 300.6425 -1280.1896 -1172.4541 30108.9870 4.3466 4.3614
ENERGY: 1300000 0.0000 0.0000 0.0000 0.0000 -10508.6652 1380.4864 0.0000 0.0000 1743.7893 -7384.3895 301.5514 -9128.1788 -7379.7865 301.0226 -274.8169 -207.1625 30404.8173 3.0805 2.8301
ENERGY: 1500000 0.0000 0.0000 0.0000 0.0000 -10567.9139 1435.6523 0.0000 0.0000 1760.1035 -7372.1582 304.3726 -9132.2616 -7365.4605 300.1026 261.3874 339.3093 30088.1782 3.6932 3.8096
ENERGY: 1700000 0.0000 0.0000 0.0000 0.0000 -10368.2691 1287.7587 0.0000 0.0000 1684.5613 -7395.9491 291.3092 -9080.5104 -7391.4919 300.1463 -932.8464 -845.5390 30454.7279 2.1683 2.1969
ENERGY: 1900000 0.0000 0.0000 0.0000 0.0000 -10666.0765 1473.4268 0.0000 0.0000 1716.8878 -7475.7620 296.8994 -9192.6498 -7472.0050 299.5741 528.9643 562.4456 29787.3299 3.0481 2.9474
TCL: Exiting due to exit command.
