Info: SIMULATION PARAMETERS:
Info: TIMESTEP               2
Info: NUMBER OF STEPS        0
Info: STEPS PER CYCLE        10
Info: PERIODIC CELL BASIS 1  37.435 0 0
Info: PERIODIC CELL BASIS 2  0 35.411 0
Info: PERIODIC CELL BASIS 3  0 0 33.088
Info: PERIODIC CELL CENTER   0 0 0
Info: WRAPPING WATERS AROUND PERIODIC BOUNDARIES ON OUTPUT.
Info: WRAPPING ALL CLUSTERS AROUND PERIODIC BOUNDARIES ON OUTPUT.
Info: FIRST LDB TIMESTEP     50
Info: LAST LDB TIMESTEP     -1
Info: HOM BACKGROUND SCALING 1
Info: PME BACKGROUND SCALING 1
Info: MIN ATOMS PER PATCH    40
Info: EMPTY PATCH LOAD       40 ATOMS
Info: INITIAL TEMPERATURE    300
Info: CENTER OF MASS MOVING INITIALLY? NO
Info: DIELECTRIC             1
Info: EXCLUDE                SCALED ONE-FOUR
Info: 1-4 ELECTROSTATICS SCALED BY 0.833333
Info: MODIFIED 1-4 VDW PARAMETERS WILL BE USED
Info: DCD FILENAME           mobley_6794076_equil.dcd
Info: DCD FREQUENCY          100000
Info: DCD FIRST STEP         100000
Info: DCD FILE WILL CONTAIN UNIT CELL DATA
Info: XST FILENAME           mobley_6794076_equil.xst
Info: XST FREQUENCY          100000
Info: NO VELOCITY DCD OUTPUT
Info: NO FORCE DCD OUTPUT
Info: OUTPUT FILENAME        mobley_6794076_equil
Info: BINARY OUTPUT FILES WILL BE USED
Info: RESTART FILENAME       mobley_6794076_equil.restart
Info: RESTART FREQUENCY      100000
Info: BINARY RESTART FILES WILL BE USED
Info: CUTOFF                 9
Info: PAIRLIST DISTANCE      11
Info: PAIRLIST SHRINK RATE   0.01
Info: PAIRLIST GROW RATE     0.01
Info: PAIRLIST TRIGGER       0.3
Info: PAIRLISTS PER CYCLE    2
Info: PAIRLISTS ENABLED
Info: MARGIN                 8
Info: HYDROGEN GROUP CUTOFF  2.5
Info: PATCH DIMENSION        21.5
Info: ENERGY OUTPUT STEPS    100000
Info: ENERGY EVALUATION STEPS    100000
Info: OUTPUT ENERGY PRECISION 4
Info: CROSSTERM ENERGY INCLUDED IN DIHEDRAL
Info: TIMING OUTPUT STEPS    1000000
Info: PRESSURE OUTPUT STEPS  100000
Info: FIXED ATOMS ACTIVE
Info: LANGEVIN DYNAMICS ACTIVE
Info: LANGEVIN TEMPERATURE   30
Info: LANGEVIN USING BBK INTEGRATOR
Info: LANGEVIN DAMPING COEFFICIENT IS 1 INVERSE PS
Info: LANGEVIN DYNAMICS APPLIED TO HYDROGENS
Info: LANGEVIN PISTON PRESSURE CONTROL ACTIVE
Info:        TARGET PRESSURE IS 1.01325 BAR
Info:     OSCILLATION PERIOD IS 50 FS
Info:             DECAY TIME IS 25 FS
Info:     PISTON TEMPERATURE IS 300 K
Info:       PRESSURE CONTROL IS GROUP-BASED
Info:    INITIAL STRAIN RATE IS 0 0 0
Info:       CELL FLUCTUATION IS ISOTROPIC
Info: PARTICLE MESH EWALD (PME) ACTIVE
Info: PME TOLERANCE               1e-06
Info: PME EWALD COEFFICIENT       0.348832
Info: PME INTERPOLATION ORDER     4
Info: PME GRID DIMENSIONS         40 36 36
Info: PME MAXIMUM GRID SPACING    1
Info: FULL ELECTROSTATIC EVALUATION FREQUENCY      2
Info: USING VERLET I (r-RESPA) MTS SCHEME.
Info: C1 SPLITTING OF LONG RANGE ELECTROSTATICS
Info: PLACING ATOMS IN PATCHES BY HYDROGEN GROUPS
Info: RIGID BONDS TO HYDROGEN : ALL
Info:         ERROR TOLERANCE : 1e-08
Info:          MAX ITERATIONS : 100
Info: RIGID WATER USING SETTLE ALGORITHM
Info: RANDOM NUMBER SEED     1744084804
Info: USE HYDROGEN BONDS?    NO
Info: Using AMBER format force field!
Info: AMBER PARM FILE        mobley_6794076.prmtop
Info: COORDINATE PDB         mobley_6794076.pdb
Info: Exclusions will be read from PARM file!
Info: SCNB (VDW SCALING)     2
Info: USING ARITHMETIC MEAN TO COMBINE L-J SIGMA PARAMETERS
Info: BINARY COORDINATES     mobley_6794076_min.coor
Info: SUMMARY OF PARAMETERS:
Info: 10 BONDS
Info: 12 ANGLES
Info:   12 HARMONIC
Info:   0 COSINE-BASED
Info: 9 DIHEDRAL
Info: 0 IMPROPER
Info: 0 CROSSTERM
Info: 0 VDW
Info: 45 VDW_PAIRS
Info: 0 NBTHOLE_PAIRS
Info: STRUCTURE SUMMARY:
Info: 2974 ATOMS
Info: 2974 BONDS
Info: 25 ANGLES
Info: 42 DIHEDRALS
Info: 0 IMPROPERS
Info: 0 CROSSTERMS
Info: 3026 EXCLUSIONS
Info: 16 FIXED ATOMS
Info: 2965 RIGID BONDS
Info: 7 RIGID BONDS BETWEEN FIXED ATOMS
Info: 5916 DEGREES OF FREEDOM
Info: 995 HYDROGEN GROUPS
Info: 4 ATOMS IN LARGEST HYDROGEN GROUP
Info: 995 MIGRATION GROUPS
Info: 4 ATOMS IN LARGEST MIGRATION GROUP
Info: 9 HYDROGEN GROUPS WITH ALL ATOMS FIXED
Info: TOTAL MASS = 17884.9 amu
Info: TOTAL CHARGE = 9.9957e-05 e
Info: MASS DENSITY = 0.67711 g/cm^3
Info: ATOM DENSITY = 0.0678039 atoms/A^3
Info: ADDED 0 IMPLICIT EXCLUSIONS
Info: NONBONDED TABLE R-SQUARED SPACING: 0.0625
Info: NONBONDED TABLE SIZE: 705 POINTS
Info: REMOVING COM VELOCITY -0.228646 -0.117838 0.147598
TCL: Running for 100000 steps
ETITLE: TS BOND ANGLE DIHED IMPRP ELECT VDW BOUNDARY MISC KINETIC TOTAL TEMP POTENTIAL TOTAL3 TEMPAVG PRESSURE GPRESSURE VOLUME PRESSAVG GPRESSAVG
ENERGY: 0 0.0000 0.0000 0.0000 0.0000 -13827.9119 2411.6590 0.0000 0.0000 1752.3869 -9663.8660 298.1208 -11416.2529 -9663.5029 298.1208 317.6187 357.9876 43861.8097 317.6187 357.9876
ENERGY: 100000 0.0000 0.0000 0.0000 0.0000 -14510.5895 2566.3128 0.0000 0.0000 180.1273 -11764.1494 30.6437 -11944.2767 -11763.6444 30.8754 511.0600 583.4455 29135.5052 5.2857 5.2899
TCL: Running 100000 steps at 60 kelvin.
TCL: Setting parameter langevinTemp to 60
TCL: Running for 100000 steps
ETITLE: TS BOND ANGLE DIHED IMPRP ELECT VDW BOUNDARY MISC KINETIC TOTAL TEMP POTENTIAL TOTAL3 TEMPAVG PRESSURE GPRESSURE VOLUME PRESSAVG GPRESSAVG
ENERGY: 100000 0.0000 0.0000 0.0000 0.0000 -14510.5895 2566.3128 0.0000 0.0000 180.0416 -11764.2351 30.6292 -11944.2767 -11763.8869 30.6292 518.4431 583.5157 29135.5052 518.4431 583.5157
ENERGY: 200000 0.0000 0.0000 0.0000 0.0000 -14289.5306 2422.0583 0.0000 0.0000 350.6348 -11516.8375 59.6509 -11867.4723 -11516.1413 59.8620 -492.8056 -440.2265 29546.1388 3.9211 3.9875
TCL: Running 100000 steps at 90 kelvin.
TCL: Setting parameter langevinTemp to 90
TCL: Running for 100000 steps
ETITLE: TS BOND ANGLE DIHED IMPRP ELECT VDW BOUNDARY MISC KINETIC TOTAL TEMP POTENTIAL TOTAL3 TEMPAVG PRESSURE GPRESSURE VOLUME PRESSAVG GPRESSAVG
ENERGY: 200000 0.0000 0.0000 0.0000 0.0000 -14289.5306 2422.0583 0.0000 0.0000 350.4590 -11517.0133 59.6210 -11867.4723 -11516.4452 59.6210 -485.3011 -440.1517 29546.1388 -485.3011 -440.1517
ENERGY: 300000 0.0000 0.0000 0.0000 0.0000 -14145.6470 2380.7853 0.0000 0.0000 524.5493 -11240.3124 89.2377 -11764.8617 -11238.5786 89.7602 -289.6552 -215.9891 28959.0273 5.1728 5.0748
TCL: Running 100000 steps at 120 kelvin.
TCL: Setting parameter langevinTemp to 120
TCL: Running for 100000 steps
ETITLE: TS BOND ANGLE DIHED IMPRP ELECT VDW BOUNDARY MISC KINETIC TOTAL TEMP POTENTIAL TOTAL3 TEMPAVG PRESSURE GPRESSURE VOLUME PRESSAVG GPRESSAVG
ENERGY: 300000 0.0000 0.0000 0.0000 0.0000 -14145.6470 2380.7853 0.0000 0.0000 524.2831 -11240.5786 89.1924 -11764.8617 -11239.6179 89.1924 -267.7752 -215.6665 28959.0273 -267.7752 -215.6665
ENERGY: 400000 0.0000 0.0000 0.0000 0.0000 -14023.8730 2385.4618 0.0000 0.0000 704.6887 -10933.7226 119.8835 -11638.4113 -10931.0573 120.0379 251.5271 287.4039 28957.1695 4.6543 4.5468
TCL: Running 100000 steps at 150 kelvin.
TCL: Setting parameter langevinTemp to 150
TCL: Running for 100000 steps
ETITLE: TS BOND ANGLE DIHED IMPRP ELECT VDW BOUNDARY MISC KINETIC TOTAL TEMP POTENTIAL TOTAL3 TEMPAVG PRESSURE GPRESSURE VOLUME PRESSAVG GPRESSAVG
ENERGY: 400000 0.0000 0.0000 0.0000 0.0000 -14023.8730 2385.4618 0.0000 0.0000 704.3294 -10934.0818 119.8224 -11638.4113 -10932.5130 119.8224 243.4125 288.1535 28957.1695 243.4125 288.1535
ENERGY: 500000 0.0000 0.0000 0.0000 0.0000 -13764.0839 2249.4522 0.0000 0.0000 893.3331 -10621.2985 151.9762 -11514.6316 -10618.7884 150.1641 -543.3424 -474.2082 29381.7418 3.6051 3.6171
TCL: Running 100000 steps at 180 kelvin.
TCL: Setting parameter langevinTemp to 180
TCL: Running for 100000 steps
ETITLE: TS BOND ANGLE DIHED IMPRP ELECT VDW BOUNDARY MISC KINETIC TOTAL TEMP POTENTIAL TOTAL3 TEMPAVG PRESSURE GPRESSURE VOLUME PRESSAVG GPRESSAVG
ENERGY: 500000 0.0000 0.0000 0.0000 0.0000 -13764.0839 2249.4522 0.0000 0.0000 892.8831 -10621.7486 151.8997 -11514.6316 -10619.6449 151.8997 -529.3518 -474.3589 29381.7418 -529.3518 -474.3589
ENERGY: 600000 0.0000 0.0000 0.0000 0.0000 -13182.8371 2024.7972 0.0000 0.0000 1080.9640 -10077.0758 183.8965 -11158.0398 -10073.6507 180.0164 -766.9470 -728.9249 29157.5507 4.6978 4.5840
TCL: Running 100000 steps at 210 kelvin.
TCL: Setting parameter langevinTemp to 210
TCL: Running for 100000 steps
ETITLE: TS BOND ANGLE DIHED IMPRP ELECT VDW BOUNDARY MISC KINETIC TOTAL TEMP POTENTIAL TOTAL3 TEMPAVG PRESSURE GPRESSURE VOLUME PRESSAVG GPRESSAVG
ENERGY: 600000 0.0000 0.0000 0.0000 0.0000 -13182.8371 2024.7972 0.0000 0.0000 1080.4115 -10077.6283 183.8025 -11158.0398 -10075.8104 183.8025 -781.8203 -728.0669 29157.5507 -781.8203 -728.0669
ENERGY: 700000 0.0000 0.0000 0.0000 0.0000 -12596.7069 1890.9186 0.0000 0.0000 1229.2216 -9476.5668 209.1185 -10705.7884 -9473.4365 210.2279 -369.8465 -300.8900 29213.8065 4.3434 4.3380
TCL: Running 100000 steps at 240 kelvin.
TCL: Setting parameter langevinTemp to 240
TCL: Running for 100000 steps
ETITLE: TS BOND ANGLE DIHED IMPRP ELECT VDW BOUNDARY MISC KINETIC TOTAL TEMP POTENTIAL TOTAL3 TEMPAVG PRESSURE GPRESSURE VOLUME PRESSAVG GPRESSAVG
ENERGY: 700000 0.0000 0.0000 0.0000 0.0000 -12596.7069 1890.9186 0.0000 0.0000 1228.6140 -9477.1743 209.0151 -10705.7884 -9474.5396 209.0151 -382.2867 -299.5820 29213.8065 -382.2867 -299.5820
ENERGY: 800000 0.0000 0.0000 0.0000 0.0000 -11893.6300 1674.1297 0.0000 0.0000 1412.4483 -8807.0520 240.2895 -10219.5003 -8803.8234 239.4292 -553.5081 -434.7266 29708.6649 3.6206 3.4922
TCL: Running 100000 steps at 270 kelvin.
TCL: Setting parameter langevinTemp to 270
TCL: Running for 100000 steps
ETITLE: TS BOND ANGLE DIHED IMPRP ELECT VDW BOUNDARY MISC KINETIC TOTAL TEMP POTENTIAL TOTAL3 TEMPAVG PRESSURE GPRESSURE VOLUME PRESSAVG GPRESSAVG
ENERGY: 800000 0.0000 0.0000 0.0000 0.0000 -11893.6300 1674.1297 0.0000 0.0000 1411.7315 -8807.7689 240.1675 -10219.5003 -8805.3572 240.1675 -522.1117 -434.8584 29708.6649 -522.1117 -434.8584
ENERGY: 900000 0.0000 0.0000 0.0000 0.0000 -11495.2641 1590.4402 0.0000 0.0000 1634.0826 -8270.7413 277.9945 -9904.8239 -8267.4509 269.7014 -18.6241 55.9808 29631.0142 3.4069 3.2886
TCL: Running 1000000 steps at 300 kelvin.
TCL: Setting parameter langevinTemp to 300
TCL: Running for 1000000 steps
ETITLE: TS BOND ANGLE DIHED IMPRP ELECT VDW BOUNDARY MISC KINETIC TOTAL TEMP POTENTIAL TOTAL3 TEMPAVG PRESSURE GPRESSURE VOLUME PRESSAVG GPRESSAVG
ENERGY: 900000 0.0000 0.0000 0.0000 0.0000 -11495.2641 1590.4402 0.0000 0.0000 1633.3263 -8271.4975 277.8659 -9904.8239 -8268.7022 277.8659 -40.2141 54.6587 29631.0142 -40.2141 54.6587
ENERGY: 1100000 0.0000 0.0000 0.0000 0.0000 -10797.3814 1434.8505 0.0000 0.0000 1750.0011 -7612.5298 297.7149 -9362.5309 -7608.4534 300.3908 -78.8824 48.7602 31189.5667 3.4337 3.6779
ENERGY: 1300000 0.0000 0.0000 0.0000 0.0000 -10852.1176 1383.3801 0.0000 0.0000 1779.5690 -7689.1685 302.7451 -9468.7375 -7684.1449 300.6632 -407.2113 -373.9362 30508.4520 2.7941 2.9329
ENERGY: 1500000 0.0000 0.0000 0.0000 0.0000 -10889.3078 1433.1078 0.0000 0.0000 1796.6588 -7659.5412 305.6524 -9456.2000 -7658.0710 299.7881 -250.3125 -142.3922 30594.1988 3.3968 3.3722
ENERGY: 1700000 0.0000 0.0000 0.0000 0.0000 -10913.3591 1441.5614 0.0000 0.0000 1781.9916 -7689.8062 303.1572 -9471.7977 -7684.5312 300.0275 -93.0320 -18.6756 30515.8894 3.0485 3.2050
ENERGY: 1900000 0.0000 0.0000 0.0000 0.0000 -10779.5794 1422.3860 0.0000 0.0000 1774.5969 -7582.5964 301.8992 -9357.1933 -7577.2706 299.7535 -140.3414 -66.4195 31125.6435 2.0707 2.2528
TCL: Exiting due to exit command.
