Info: SIMULATION PARAMETERS:
Info: TIMESTEP               2
Info: NUMBER OF STEPS        0
Info: STEPS PER CYCLE        10
Info: PERIODIC CELL BASIS 1  37.968 0 0
Info: PERIODIC CELL BASIS 2  0 35.779 0
Info: PERIODIC CELL BASIS 3  0 0 31.855
Info: PERIODIC CELL CENTER   0 0 0
Info: WRAPPING WATERS AROUND PERIODIC BOUNDARIES ON OUTPUT.
Info: WRAPPING ALL CLUSTERS AROUND PERIODIC BOUNDARIES ON OUTPUT.
Info: FIRST LDB TIMESTEP     50
Info: LAST LDB TIMESTEP     -1
Info: HOM BACKGROUND SCALING 1
Info: PME BACKGROUND SCALING 1
Info: MIN ATOMS PER PATCH    40
Info: EMPTY PATCH LOAD       40 ATOMS
Info: INITIAL TEMPERATURE    300
Info: CENTER OF MASS MOVING INITIALLY? NO
Info: DIELECTRIC             1
Info: EXCLUDE                SCALED ONE-FOUR
Info: 1-4 ELECTROSTATICS SCALED BY 0.833333
Info: MODIFIED 1-4 VDW PARAMETERS WILL BE USED
Info: DCD FILENAME           mobley_2451097_equil.dcd
Info: DCD FREQUENCY          100000
Info: DCD FIRST STEP         100000
Info: DCD FILE WILL CONTAIN UNIT CELL DATA
Info: XST FILENAME           mobley_2451097_equil.xst
Info: XST FREQUENCY          100000
Info: NO VELOCITY DCD OUTPUT
Info: NO FORCE DCD OUTPUT
Info: OUTPUT FILENAME        mobley_2451097_equil
Info: BINARY OUTPUT FILES WILL BE USED
Info: RESTART FILENAME       mobley_2451097_equil.restart
Info: RESTART FREQUENCY      100000
Info: BINARY RESTART FILES WILL BE USED
Info: CUTOFF                 9
Info: PAIRLIST DISTANCE      11
Info: PAIRLIST SHRINK RATE   0.01
Info: PAIRLIST GROW RATE     0.01
Info: PAIRLIST TRIGGER       0.3
Info: PAIRLISTS PER CYCLE    2
Info: PAIRLISTS ENABLED
Info: MARGIN                 8
Info: HYDROGEN GROUP CUTOFF  2.5
Info: PATCH DIMENSION        21.5
Info: ENERGY OUTPUT STEPS    100000
Info: ENERGY EVALUATION STEPS    100000
Info: OUTPUT ENERGY PRECISION 4
Info: CROSSTERM ENERGY INCLUDED IN DIHEDRAL
Info: TIMING OUTPUT STEPS    1000000
Info: PRESSURE OUTPUT STEPS  100000
Info: FIXED ATOMS ACTIVE
Info: LANGEVIN DYNAMICS ACTIVE
Info: LANGEVIN TEMPERATURE   30
Info: LANGEVIN USING BBK INTEGRATOR
Info: LANGEVIN DAMPING COEFFICIENT IS 1 INVERSE PS
Info: LANGEVIN DYNAMICS APPLIED TO HYDROGENS
Info: LANGEVIN PISTON PRESSURE CONTROL ACTIVE
Info:        TARGET PRESSURE IS 1.01325 BAR
Info:     OSCILLATION PERIOD IS 50 FS
Info:             DECAY TIME IS 25 FS
Info:     PISTON TEMPERATURE IS 300 K
Info:       PRESSURE CONTROL IS GROUP-BASED
Info:    INITIAL STRAIN RATE IS 0 0 0
Info:       CELL FLUCTUATION IS ISOTROPIC
Info: PARTICLE MESH EWALD (PME) ACTIVE
Info: PME TOLERANCE               1e-06
Info: PME EWALD COEFFICIENT       0.348832
Info: PME INTERPOLATION ORDER     4
Info: PME GRID DIMENSIONS         40 36 32
Info: PME MAXIMUM GRID SPACING    1
Info: FULL ELECTROSTATIC EVALUATION FREQUENCY      2
Info: USING VERLET I (r-RESPA) MTS SCHEME.
Info: C1 SPLITTING OF LONG RANGE ELECTROSTATICS
Info: PLACING ATOMS IN PATCHES BY HYDROGEN GROUPS
Info: RIGID BONDS TO HYDROGEN : ALL
Info:         ERROR TOLERANCE : 1e-08
Info:          MAX ITERATIONS : 100
Info: RIGID WATER USING SETTLE ALGORITHM
Info: RANDOM NUMBER SEED     1743728999
Info: USE HYDROGEN BONDS?    NO
Info: Using AMBER format force field!
Info: AMBER PARM FILE        mobley_2451097.prmtop
Info: COORDINATE PDB         mobley_2451097.pdb
Info: Exclusions will be read from PARM file!
Info: SCNB (VDW SCALING)     2
Info: USING ARITHMETIC MEAN TO COMBINE L-J SIGMA PARAMETERS
Info: BINARY COORDINATES     mobley_2451097_min.coor
Info: SUMMARY OF PARAMETERS:
Info: 6 BONDS
Info: 4 ANGLES
Info:   4 HARMONIC
Info:   0 COSINE-BASED
Info: 3 DIHEDRAL
Info: 0 IMPROPER
Info: 0 CROSSTERM
Info: 0 VDW
Info: 21 VDW_PAIRS
Info: 0 NBTHOLE_PAIRS
Info: STRUCTURE SUMMARY:
Info: 2974 ATOMS
Info: 2974 BONDS
Info: 19 ANGLES
Info: 32 DIHEDRALS
Info: 0 IMPROPERS
Info: 0 CROSSTERMS
Info: 3016 EXCLUSIONS
Info: 13 FIXED ATOMS
Info: 2966 RIGID BONDS
Info: 5 RIGID BONDS BETWEEN FIXED ATOMS
Info: 5922 DEGREES OF FREEDOM
Info: 995 HYDROGEN GROUPS
Info: 3 ATOMS IN LARGEST HYDROGEN GROUP
Info: 995 MIGRATION GROUPS
Info: 3 ATOMS IN LARGEST MIGRATION GROUP
Info: 8 HYDROGEN GROUPS WITH ALL ATOMS FIXED
Info: TOTAL MASS = 17884.9 amu
Info: TOTAL CHARGE = -9.99905e-05 e
Info: MASS DENSITY = 0.686313 g/cm^3
Info: ATOM DENSITY = 0.0687254 atoms/A^3
Info: ADDED 0 IMPLICIT EXCLUSIONS
Info: NONBONDED TABLE R-SQUARED SPACING: 0.0625
Info: NONBONDED TABLE SIZE: 705 POINTS
Info: REMOVING COM VELOCITY -0.119557 0.0377804 0.227386
TCL: Running for 100000 steps
ETITLE: TS BOND ANGLE DIHED IMPRP ELECT VDW BOUNDARY MISC KINETIC TOTAL TEMP POTENTIAL TOTAL3 TEMPAVG PRESSURE GPRESSURE VOLUME PRESSAVG GPRESSAVG
ENERGY: 0 0.0000 0.0000 0.0000 0.0000 -13778.2723 2397.7618 0.0000 0.0000 1729.4989 -9651.0116 293.9289 -11380.5105 -9650.6844 293.9289 310.6557 345.0487 43273.6500 310.6557 345.0487
ENERGY: 100000 0.0000 0.0000 0.0000 0.0000 -14429.1912 2543.5960 0.0000 0.0000 175.1142 -11710.4810 29.7607 -11885.5952 -11710.2047 30.8729 529.1197 584.3470 28573.8717 4.3997 4.4305
TCL: Running 100000 steps at 60 kelvin.
TCL: Setting parameter langevinTemp to 60
TCL: Running for 100000 steps
ETITLE: TS BOND ANGLE DIHED IMPRP ELECT VDW BOUNDARY MISC KINETIC TOTAL TEMP POTENTIAL TOTAL3 TEMPAVG PRESSURE GPRESSURE VOLUME PRESSAVG GPRESSAVG
ENERGY: 100000 0.0000 0.0000 0.0000 0.0000 -14429.1912 2543.5960 0.0000 0.0000 175.0265 -11710.5687 29.7458 -11885.5952 -11710.2266 29.7458 538.2504 584.1177 28573.8717 538.2504 584.1177
ENERGY: 200000 0.0000 0.0000 0.0000 0.0000 -14159.0404 2329.5132 0.0000 0.0000 361.1837 -11468.3435 61.3833 -11829.5272 -11467.7212 59.9420 -1116.9265 -1077.5076 28946.3384 4.5509 4.5970
TCL: Running 100000 steps at 90 kelvin.
TCL: Setting parameter langevinTemp to 90
TCL: Running for 100000 steps
ETITLE: TS BOND ANGLE DIHED IMPRP ELECT VDW BOUNDARY MISC KINETIC TOTAL TEMP POTENTIAL TOTAL3 TEMPAVG PRESSURE GPRESSURE VOLUME PRESSAVG GPRESSAVG
ENERGY: 200000 0.0000 0.0000 0.0000 0.0000 -14159.0404 2329.5132 0.0000 0.0000 361.0108 -11468.5164 61.3539 -11829.5272 -11467.6172 61.3539 -1120.0472 -1077.8821 28946.3384 -1120.0472 -1077.8821
ENERGY: 300000 0.0000 0.0000 0.0000 0.0000 -14101.8045 2394.0060 0.0000 0.0000 536.1935 -11171.6051 91.1263 -11707.7986 -11170.6662 89.9167 -224.4702 -132.5695 28826.1852 4.3066 4.4312
TCL: Running 100000 steps at 120 kelvin.
TCL: Setting parameter langevinTemp to 120
TCL: Running for 100000 steps
ETITLE: TS BOND ANGLE DIHED IMPRP ELECT VDW BOUNDARY MISC KINETIC TOTAL TEMP POTENTIAL TOTAL3 TEMPAVG PRESSURE GPRESSURE VOLUME PRESSAVG GPRESSAVG
ENERGY: 300000 0.0000 0.0000 0.0000 0.0000 -14101.8046 2394.0060 0.0000 0.0000 535.9403 -11171.8583 91.0832 -11707.7986 -11170.7643 91.0832 -187.1506 -132.9657 28826.1852 -187.1506 -132.9657
ENERGY: 400000 0.0000 0.0000 0.0000 0.0000 -13875.6992 2305.5423 0.0000 0.0000 713.1695 -10856.9875 121.2034 -11570.1570 -10854.7136 119.5879 -578.6227 -520.3701 29342.5419 2.9312 2.8990
TCL: Running 100000 steps at 150 kelvin.
TCL: Setting parameter langevinTemp to 150
TCL: Running for 100000 steps
ETITLE: TS BOND ANGLE DIHED IMPRP ELECT VDW BOUNDARY MISC KINETIC TOTAL TEMP POTENTIAL TOTAL3 TEMPAVG PRESSURE GPRESSURE VOLUME PRESSAVG GPRESSAVG
ENERGY: 400000 0.0000 0.0000 0.0000 0.0000 -13875.6992 2305.5423 0.0000 0.0000 712.8289 -10857.3281 121.1455 -11570.1570 -10855.7925 121.1455 -570.7372 -519.7608 29342.5419 -570.7372 -519.7608
ENERGY: 500000 0.0000 0.0000 0.0000 0.0000 -13606.7825 2224.9522 0.0000 0.0000 878.9643 -10502.8660 149.3803 -11381.8303 -10502.4233 149.9722 -402.8562 -415.2573 29368.2666 4.1205 4.3210
TCL: Running 100000 steps at 180 kelvin.
TCL: Setting parameter langevinTemp to 180
TCL: Running for 100000 steps
ETITLE: TS BOND ANGLE DIHED IMPRP ELECT VDW BOUNDARY MISC KINETIC TOTAL TEMP POTENTIAL TOTAL3 TEMPAVG PRESSURE GPRESSURE VOLUME PRESSAVG GPRESSAVG
ENERGY: 500000 0.0000 0.0000 0.0000 0.0000 -13606.7825 2224.9522 0.0000 0.0000 878.5101 -10503.3203 149.3031 -11381.8303 -10501.6127 149.3031 -459.6752 -416.5152 29368.2666 -459.6752 -416.5152
ENERGY: 600000 0.0000 0.0000 0.0000 0.0000 -13059.0772 2015.4539 0.0000 0.0000 1054.6778 -9988.9455 179.2428 -11043.6233 -9986.5578 180.1068 -605.5537 -550.7807 28959.9412 2.6106 2.5916
TCL: Running 100000 steps at 210 kelvin.
TCL: Setting parameter langevinTemp to 210
TCL: Running for 100000 steps
ETITLE: TS BOND ANGLE DIHED IMPRP ELECT VDW BOUNDARY MISC KINETIC TOTAL TEMP POTENTIAL TOTAL3 TEMPAVG PRESSURE GPRESSURE VOLUME PRESSAVG GPRESSAVG
ENERGY: 600000 0.0000 0.0000 0.0000 0.0000 -13059.0772 2015.4539 0.0000 0.0000 1054.1783 -9989.4450 179.1579 -11043.6233 -9987.7775 179.1579 -609.0555 -551.4968 28959.9412 -609.0555 -551.4968
ENERGY: 700000 0.0000 0.0000 0.0000 0.0000 -12574.3776 1979.1300 0.0000 0.0000 1218.1995 -9377.0480 207.0334 -10595.2475 -9374.2474 210.3543 775.0923 880.9705 28860.5954 4.6115 4.7107
TCL: Running 100000 steps at 240 kelvin.
TCL: Setting parameter langevinTemp to 240
TCL: Running for 100000 steps
ETITLE: TS BOND ANGLE DIHED IMPRP ELECT VDW BOUNDARY MISC KINETIC TOTAL TEMP POTENTIAL TOTAL3 TEMPAVG PRESSURE GPRESSURE VOLUME PRESSAVG GPRESSAVG
ENERGY: 700000 0.0000 0.0000 0.0000 0.0000 -12574.3776 1979.1300 0.0000 0.0000 1217.5936 -9377.6539 206.9304 -10595.2475 -9375.8890 206.9304 812.6123 881.4815 28860.5954 812.6123 881.4815
ENERGY: 800000 0.0000 0.0000 0.0000 0.0000 -11902.6854 1688.3894 0.0000 0.0000 1421.0536 -8793.2424 241.5085 -10214.2960 -8791.2164 239.8353 -559.4648 -452.2877 29754.7162 3.6406 3.6542
TCL: Running 100000 steps at 270 kelvin.
TCL: Setting parameter langevinTemp to 270
TCL: Running for 100000 steps
ETITLE: TS BOND ANGLE DIHED IMPRP ELECT VDW BOUNDARY MISC KINETIC TOTAL TEMP POTENTIAL TOTAL3 TEMPAVG PRESSURE GPRESSURE VOLUME PRESSAVG GPRESSAVG
ENERGY: 800000 0.0000 0.0000 0.0000 0.0000 -11902.6854 1688.3894 0.0000 0.0000 1420.3595 -8793.9364 241.3906 -10214.2960 -8791.0532 241.3906 -537.4063 -453.4290 29754.7162 -537.4063 -453.4290
ENERGY: 900000 0.0000 0.0000 0.0000 0.0000 -11367.9746 1602.4808 0.0000 0.0000 1585.5756 -8179.9181 269.4691 -9765.4937 -8176.0425 270.0473 121.5228 187.4954 30209.0185 2.8072 2.7279
TCL: Running 1000000 steps at 300 kelvin.
TCL: Setting parameter langevinTemp to 300
TCL: Running for 1000000 steps
ETITLE: TS BOND ANGLE DIHED IMPRP ELECT VDW BOUNDARY MISC KINETIC TOTAL TEMP POTENTIAL TOTAL3 TEMPAVG PRESSURE GPRESSURE VOLUME PRESSAVG GPRESSAVG
ENERGY: 900000 0.0000 0.0000 0.0000 0.0000 -11367.9746 1602.4808 0.0000 0.0000 1584.7660 -8180.7278 269.3315 -9765.4937 -8178.3218 269.3315 107.7466 188.5047 30209.0185 107.7466 188.5047
ENERGY: 1100000 0.0000 0.0000 0.0000 0.0000 -10718.4735 1389.5773 0.0000 0.0000 1758.0792 -7570.8170 298.7861 -9328.8962 -7569.1543 300.0364 -495.8743 -426.6670 31041.9220 2.4804 2.4741
ENERGY: 1300000 0.0000 0.0000 0.0000 0.0000 -10851.4574 1483.2738 0.0000 0.0000 1800.2205 -7567.9632 305.9480 -9368.1836 -7563.8969 299.9916 389.2263 469.3206 30365.3716 1.1810 1.0518
ENERGY: 1500000 0.0000 0.0000 0.0000 0.0000 -10767.7641 1416.3024 0.0000 0.0000 1726.7286 -7624.7330 293.4581 -9351.4617 -7619.3812 300.6671 -363.7638 -282.7806 30918.4584 3.5771 3.4732
ENERGY: 1700000 0.0000 0.0000 0.0000 0.0000 -10854.3645 1444.3797 0.0000 0.0000 1759.9580 -7650.0269 299.1054 -9409.9849 -7646.3178 300.2756 -116.2789 -62.6708 30536.2474 3.1855 3.1976
ENERGY: 1900000 0.0000 0.0000 0.0000 0.0000 -10948.5869 1487.1399 0.0000 0.0000 1733.9986 -7727.4484 294.6936 -9461.4470 -7725.1392 299.5204 119.2012 250.0220 30219.9466 3.5315 3.5192
TCL: Exiting due to exit command.
