Info: SIMULATION PARAMETERS:
Info: TIMESTEP               2
Info: NUMBER OF STEPS        0
Info: STEPS PER CYCLE        10
Info: PERIODIC CELL BASIS 1  37.435 0 0
Info: PERIODIC CELL BASIS 2  0 34.26 0
Info: PERIODIC CELL BASIS 3  0 0 33.876
Info: PERIODIC CELL CENTER   0 0 0
Info: WRAPPING WATERS AROUND PERIODIC BOUNDARIES ON OUTPUT.
Info: WRAPPING ALL CLUSTERS AROUND PERIODIC BOUNDARIES ON OUTPUT.
Info: FIRST LDB TIMESTEP     50
Info: LAST LDB TIMESTEP     -1
Info: HOM BACKGROUND SCALING 1
Info: PME BACKGROUND SCALING 1
Info: MIN ATOMS PER PATCH    40
Info: EMPTY PATCH LOAD       40 ATOMS
Info: INITIAL TEMPERATURE    300
Info: CENTER OF MASS MOVING INITIALLY? NO
Info: DIELECTRIC             1
Info: EXCLUDE                SCALED ONE-FOUR
Info: 1-4 ELECTROSTATICS SCALED BY 0.833333
Info: MODIFIED 1-4 VDW PARAMETERS WILL BE USED
Info: DCD FILENAME           mobley_7768165_equil.dcd
Info: DCD FREQUENCY          100000
Info: DCD FIRST STEP         100000
Info: DCD FILE WILL CONTAIN UNIT CELL DATA
Info: XST FILENAME           mobley_7768165_equil.xst
Info: XST FREQUENCY          100000
Info: NO VELOCITY DCD OUTPUT
Info: NO FORCE DCD OUTPUT
Info: OUTPUT FILENAME        mobley_7768165_equil
Info: BINARY OUTPUT FILES WILL BE USED
Info: RESTART FILENAME       mobley_7768165_equil.restart
Info: RESTART FREQUENCY      100000
Info: BINARY RESTART FILES WILL BE USED
Info: CUTOFF                 9
Info: PAIRLIST DISTANCE      11
Info: PAIRLIST SHRINK RATE   0.01
Info: PAIRLIST GROW RATE     0.01
Info: PAIRLIST TRIGGER       0.3
Info: PAIRLISTS PER CYCLE    2
Info: PAIRLISTS ENABLED
Info: MARGIN                 8
Info: HYDROGEN GROUP CUTOFF  2.5
Info: PATCH DIMENSION        21.5
Info: ENERGY OUTPUT STEPS    100000
Info: ENERGY EVALUATION STEPS    100000
Info: OUTPUT ENERGY PRECISION 4
Info: CROSSTERM ENERGY INCLUDED IN DIHEDRAL
Info: TIMING OUTPUT STEPS    1000000
Info: PRESSURE OUTPUT STEPS  100000
Info: FIXED ATOMS ACTIVE
Info: LANGEVIN DYNAMICS ACTIVE
Info: LANGEVIN TEMPERATURE   30
Info: LANGEVIN USING BBK INTEGRATOR
Info: LANGEVIN DAMPING COEFFICIENT IS 1 INVERSE PS
Info: LANGEVIN DYNAMICS APPLIED TO HYDROGENS
Info: LANGEVIN PISTON PRESSURE CONTROL ACTIVE
Info:        TARGET PRESSURE IS 1.01325 BAR
Info:     OSCILLATION PERIOD IS 50 FS
Info:             DECAY TIME IS 25 FS
Info:     PISTON TEMPERATURE IS 300 K
Info:       PRESSURE CONTROL IS GROUP-BASED
Info:    INITIAL STRAIN RATE IS 0 0 0
Info:       CELL FLUCTUATION IS ISOTROPIC
Info: PARTICLE MESH EWALD (PME) ACTIVE
Info: PME TOLERANCE               1e-06
Info: PME EWALD COEFFICIENT       0.348832
Info: PME INTERPOLATION ORDER     4
Info: PME GRID DIMENSIONS         40 36 36
Info: PME MAXIMUM GRID SPACING    1
Info: FULL ELECTROSTATIC EVALUATION FREQUENCY      2
Info: USING VERLET I (r-RESPA) MTS SCHEME.
Info: C1 SPLITTING OF LONG RANGE ELECTROSTATICS
Info: PLACING ATOMS IN PATCHES BY HYDROGEN GROUPS
Info: RIGID BONDS TO HYDROGEN : ALL
Info:         ERROR TOLERANCE : 1e-08
Info:          MAX ITERATIONS : 100
Info: RIGID WATER USING SETTLE ALGORITHM
Info: RANDOM NUMBER SEED     1743900565
Info: USE HYDROGEN BONDS?    NO
Info: Using AMBER format force field!
Info: AMBER PARM FILE        mobley_7768165.prmtop
Info: COORDINATE PDB         mobley_7768165.pdb
Info: Exclusions will be read from PARM file!
Info: SCNB (VDW SCALING)     2
Info: USING ARITHMETIC MEAN TO COMBINE L-J SIGMA PARAMETERS
Info: BINARY COORDINATES     mobley_7768165_min.coor
Info: SUMMARY OF PARAMETERS:
Info: 6 BONDS
Info: 6 ANGLES
Info: 4 DIHEDRAL
Info: 0 IMPROPER
Info: 0 CROSSTERM
Info: 0 VDW
Info: 21 VDW_PAIRS
Info: 0 NBTHOLE_PAIRS
Info: STRUCTURE SUMMARY:
Info: 2948 ATOMS
Info: 2947 BONDS
Info: 12 ANGLES
Info: 13 DIHEDRALS
Info: 0 IMPROPERS
Info: 0 CROSSTERMS
Info: 2968 EXCLUSIONS
Info: 8 FIXED ATOMS
Info: 2944 RIGID BONDS
Info: 4 RIGID BONDS BETWEEN FIXED ATOMS
Info: 5880 DEGREES OF FREEDOM
Info: 984 HYDROGEN GROUPS
Info: 3 ATOMS IN LARGEST HYDROGEN GROUP
Info: 984 MIGRATION GROUPS
Info: 3 ATOMS IN LARGEST MIGRATION GROUP
Info: 4 HYDROGEN GROUPS WITH ALL ATOMS FIXED
Info: TOTAL MASS = 17799.1 amu
Info: TOTAL CHARGE = -0.000100011 e
Info: MASS DENSITY = 0.680299 g/cm^3
Info: ATOM DENSITY = 0.0678532 atoms/A^3
Info: ADDED 0 IMPLICIT EXCLUSIONS
Info: NONBONDED TABLE R-SQUARED SPACING: 0.0625
Info: NONBONDED TABLE SIZE: 705 POINTS
Info: REMOVING COM VELOCITY 0.0469681 0.0768012 0.185851
TCL: Running for 100000 steps
ETITLE: TS BOND ANGLE DIHED IMPRP ELECT VDW BOUNDARY MISC KINETIC TOTAL TEMP POTENTIAL TOTAL3 TEMPAVG PRESSURE GPRESSURE VOLUME PRESSAVG GPRESSAVG
ENERGY: 0 0.0000 0.0000 0.0000 0.0000 -13573.2839 2334.1795 0.0000 0.0000 1757.7481 -9481.3563 300.8636 -11239.1044 -9481.0440 300.8636 72.8480 110.1457 43446.7525 72.8480 110.1457
ENERGY: 100000 0.0000 0.0000 0.0000 0.0000 -14178.2270 2416.0971 0.0000 0.0000 174.4988 -11587.6311 29.8680 -11762.1299 -11587.2945 30.8760 -606.1687 -548.4031 28952.6788 2.4064 2.3707
TCL: Running 100000 steps at 60 kelvin.
TCL: Setting parameter langevinTemp to 60
TCL: Running for 100000 steps
ETITLE: TS BOND ANGLE DIHED IMPRP ELECT VDW BOUNDARY MISC KINETIC TOTAL TEMP POTENTIAL TOTAL3 TEMPAVG PRESSURE GPRESSURE VOLUME PRESSAVG GPRESSAVG
ENERGY: 100000 0.0000 0.0000 0.0000 0.0000 -14178.2270 2416.0971 0.0000 0.0000 174.4127 -11587.7173 29.8532 -11762.1299 -11587.3343 29.8532 -604.9902 -548.4319 28952.6788 -604.9902 -548.4319
ENERGY: 200000 0.0000 0.0000 0.0000 0.0000 -14288.6816 2561.3811 0.0000 0.0000 355.3210 -11371.9796 60.8182 -11727.3005 -11371.0877 59.9470 1031.0455 1081.7474 28456.8748 3.8184 3.7894
TCL: Running 100000 steps at 90 kelvin.
TCL: Setting parameter langevinTemp to 90
TCL: Running for 100000 steps
ETITLE: TS BOND ANGLE DIHED IMPRP ELECT VDW BOUNDARY MISC KINETIC TOTAL TEMP POTENTIAL TOTAL3 TEMPAVG PRESSURE GPRESSURE VOLUME PRESSAVG GPRESSAVG
ENERGY: 200000 0.0000 0.0000 0.0000 0.0000 -14288.6816 2561.3811 0.0000 0.0000 355.1401 -11372.1604 60.7873 -11727.3005 -11371.6218 60.7873 1027.7461 1081.6850 28456.8748 1027.7461 1081.6850
ENERGY: 300000 0.0000 0.0000 0.0000 0.0000 -13932.6327 2298.3272 0.0000 0.0000 537.4388 -11096.8666 91.9903 -11634.3054 -11095.4121 90.1088 -923.7129 -859.9551 28723.7324 3.5972 3.5950
TCL: Running 100000 steps at 120 kelvin.
TCL: Setting parameter langevinTemp to 120
TCL: Running for 100000 steps
ETITLE: TS BOND ANGLE DIHED IMPRP ELECT VDW BOUNDARY MISC KINETIC TOTAL TEMP POTENTIAL TOTAL3 TEMPAVG PRESSURE GPRESSURE VOLUME PRESSAVG GPRESSAVG
ENERGY: 300000 0.0000 0.0000 0.0000 0.0000 -13932.6327 2298.3272 0.0000 0.0000 537.1735 -11097.1319 91.9449 -11634.3054 -11095.9869 91.9449 -909.8230 -859.9148 28723.7324 -909.8230 -859.9148
ENERGY: 400000 0.0000 0.0000 0.0000 0.0000 -13755.5546 2274.6590 0.0000 0.0000 723.7870 -10757.1087 123.8865 -11480.8956 -10754.6485 120.1416 -576.1133 -495.2479 28870.1240 3.8756 3.9783
TCL: Running 100000 steps at 150 kelvin.
TCL: Setting parameter langevinTemp to 150
TCL: Running for 100000 steps
ETITLE: TS BOND ANGLE DIHED IMPRP ELECT VDW BOUNDARY MISC KINETIC TOTAL TEMP POTENTIAL TOTAL3 TEMPAVG PRESSURE GPRESSURE VOLUME PRESSAVG GPRESSAVG
ENERGY: 400000 0.0000 0.0000 0.0000 0.0000 -13755.5546 2274.6590 0.0000 0.0000 723.4219 -10757.4738 123.8240 -11480.8956 -10756.1587 123.8240 -550.0132 -494.5694 28870.1240 -550.0132 -494.5694
ENERGY: 500000 0.0000 0.0000 0.0000 0.0000 -13544.5818 2233.6271 0.0000 0.0000 880.0442 -10430.9104 150.6321 -11310.9547 -10428.1356 149.9215 -132.3461 -46.8873 28575.3187 4.0804 3.9395
TCL: Running 100000 steps at 180 kelvin.
TCL: Setting parameter langevinTemp to 180
TCL: Running for 100000 steps
ETITLE: TS BOND ANGLE DIHED IMPRP ELECT VDW BOUNDARY MISC KINETIC TOTAL TEMP POTENTIAL TOTAL3 TEMPAVG PRESSURE GPRESSURE VOLUME PRESSAVG GPRESSAVG
ENERGY: 500000 0.0000 0.0000 0.0000 0.0000 -13544.5818 2233.6271 0.0000 0.0000 879.6132 -10431.3415 150.5583 -11310.9547 -10429.9753 150.5583 -100.0453 -46.5470 28575.3187 -100.0453 -46.5470
ENERGY: 600000 0.0000 0.0000 0.0000 0.0000 -13008.0901 2005.0073 0.0000 0.0000 1062.1409 -9940.9419 181.8005 -11003.0828 -9936.9133 179.6812 -1279.8454 -1215.9062 29556.9354 4.4942 4.4814
TCL: Running 100000 steps at 210 kelvin.
TCL: Setting parameter langevinTemp to 210
TCL: Running for 100000 steps
ETITLE: TS BOND ANGLE DIHED IMPRP ELECT VDW BOUNDARY MISC KINETIC TOTAL TEMP POTENTIAL TOTAL3 TEMPAVG PRESSURE GPRESSURE VOLUME PRESSAVG GPRESSAVG
ENERGY: 600000 0.0000 0.0000 0.0000 0.0000 -13008.0901 2005.0073 0.0000 0.0000 1061.6179 -9941.4649 181.7110 -11003.0828 -9938.9381 181.7110 -1273.7512 -1214.4884 29556.9354 -1273.7512 -1214.4884
ENERGY: 700000 0.0000 0.0000 0.0000 0.0000 -12469.4613 1948.6489 0.0000 0.0000 1230.6215 -9290.1910 210.6384 -10520.8124 -9287.6409 209.8671 725.6936 781.9307 28326.9500 4.4688 4.3777
TCL: Running 100000 steps at 240 kelvin.
TCL: Setting parameter langevinTemp to 240
TCL: Running for 100000 steps
ETITLE: TS BOND ANGLE DIHED IMPRP ELECT VDW BOUNDARY MISC KINETIC TOTAL TEMP POTENTIAL TOTAL3 TEMPAVG PRESSURE GPRESSURE VOLUME PRESSAVG GPRESSAVG
ENERGY: 700000 0.0000 0.0000 0.0000 0.0000 -12469.4613 1948.6489 0.0000 0.0000 1229.9591 -9290.8533 210.5250 -10520.8124 -9289.2892 210.5250 692.1470 783.4154 28326.9500 692.1470 783.4154
ENERGY: 800000 0.0000 0.0000 0.0000 0.0000 -11847.2445 1771.3929 0.0000 0.0000 1437.9562 -8637.8955 246.1267 -10075.8516 -8636.9465 239.4674 583.8502 698.1613 29009.9005 2.5619 2.6009
TCL: Running 100000 steps at 270 kelvin.
TCL: Setting parameter langevinTemp to 270
TCL: Running for 100000 steps
ETITLE: TS BOND ANGLE DIHED IMPRP ELECT VDW BOUNDARY MISC KINETIC TOTAL TEMP POTENTIAL TOTAL3 TEMPAVG PRESSURE GPRESSURE VOLUME PRESSAVG GPRESSAVG
ENERGY: 800000 0.0000 0.0000 0.0000 0.0000 -11847.2445 1771.3929 0.0000 0.0000 1437.2690 -8638.5826 246.0091 -10075.8516 -8636.4912 246.0091 619.7648 696.1102 29009.9005 619.7648 696.1102
ENERGY: 900000 0.0000 0.0000 0.0000 0.0000 -11221.9803 1511.7814 0.0000 0.0000 1639.3007 -8070.8982 280.5897 -9710.1989 -8065.2637 269.6905 -458.6728 -365.7646 29533.0855 2.9999 3.1501
TCL: Running 1000000 steps at 300 kelvin.
TCL: Setting parameter langevinTemp to 300
TCL: Running for 1000000 steps
ETITLE: TS BOND ANGLE DIHED IMPRP ELECT VDW BOUNDARY MISC KINETIC TOTAL TEMP POTENTIAL TOTAL3 TEMPAVG PRESSURE GPRESSURE VOLUME PRESSAVG GPRESSAVG
ENERGY: 900000 0.0000 0.0000 0.0000 0.0000 -11221.9803 1511.7814 0.0000 0.0000 1638.5439 -8071.6550 280.4601 -9710.1989 -8069.3240 280.4601 -445.2503 -363.5190 29533.0855 -445.2503 -363.5190
ENERGY: 1100000 0.0000 0.0000 0.0000 0.0000 -10687.7803 1409.2490 0.0000 0.0000 1714.0579 -7564.4733 293.3854 -9278.5312 -7561.8936 300.3455 -184.3528 -107.8712 30475.8851 3.6188 3.5468
ENERGY: 1300000 0.0000 0.0000 0.0000 0.0000 -10651.4987 1382.2078 0.0000 0.0000 1721.5671 -7547.7239 294.6707 -9269.2910 -7543.2726 300.5889 -261.0353 -149.0488 30149.5284 2.2961 2.4787
ENERGY: 1500000 0.0000 0.0000 0.0000 0.0000 -10693.6142 1434.5943 0.0000 0.0000 1795.0051 -7464.0148 307.2407 -9259.0199 -7458.6622 300.2643 -276.7754 -74.7488 30746.8393 3.1236 3.1962
ENERGY: 1700000 0.0000 0.0000 0.0000 0.0000 -10601.4456 1339.5434 0.0000 0.0000 1797.9357 -7463.9665 307.7423 -9261.9022 -7460.8654 300.4135 -679.7815 -663.8790 30330.0355 4.0821 3.7933
ENERGY: 1900000 0.0000 0.0000 0.0000 0.0000 -10543.6541 1354.2118 0.0000 0.0000 1774.5716 -7414.8707 303.7432 -9189.4423 -7410.4334 300.1436 -684.7103 -600.7541 31171.6087 4.5110 4.6439
TCL: Exiting due to exit command.
