Info: SIMULATION PARAMETERS:
Info: TIMESTEP               2
Info: NUMBER OF STEPS        0
Info: STEPS PER CYCLE        10
Info: PERIODIC CELL BASIS 1  36.592 0 0
Info: PERIODIC CELL BASIS 2  0 34.26 0
Info: PERIODIC CELL BASIS 3  0 0 34.68
Info: PERIODIC CELL CENTER   0 0 0
Info: WRAPPING WATERS AROUND PERIODIC BOUNDARIES ON OUTPUT.
Info: WRAPPING ALL CLUSTERS AROUND PERIODIC BOUNDARIES ON OUTPUT.
Info: FIRST LDB TIMESTEP     50
Info: LAST LDB TIMESTEP     -1
Info: HOM BACKGROUND SCALING 1
Info: PME BACKGROUND SCALING 1
Info: MIN ATOMS PER PATCH    40
Info: EMPTY PATCH LOAD       40 ATOMS
Info: INITIAL TEMPERATURE    300
Info: CENTER OF MASS MOVING INITIALLY? NO
Info: DIELECTRIC             1
Info: EXCLUDE                SCALED ONE-FOUR
Info: 1-4 ELECTROSTATICS SCALED BY 0.833333
Info: MODIFIED 1-4 VDW PARAMETERS WILL BE USED
Info: DCD FILENAME           mobley_4364398_equil.dcd
Info: DCD FREQUENCY          100000
Info: DCD FIRST STEP         100000
Info: DCD FILE WILL CONTAIN UNIT CELL DATA
Info: XST FILENAME           mobley_4364398_equil.xst
Info: XST FREQUENCY          100000
Info: NO VELOCITY DCD OUTPUT
Info: NO FORCE DCD OUTPUT
Info: OUTPUT FILENAME        mobley_4364398_equil
Info: BINARY OUTPUT FILES WILL BE USED
Info: RESTART FILENAME       mobley_4364398_equil.restart
Info: RESTART FREQUENCY      100000
Info: BINARY RESTART FILES WILL BE USED
Info: CUTOFF                 9
Info: PAIRLIST DISTANCE      11
Info: PAIRLIST SHRINK RATE   0.01
Info: PAIRLIST GROW RATE     0.01
Info: PAIRLIST TRIGGER       0.3
Info: PAIRLISTS PER CYCLE    2
Info: PAIRLISTS ENABLED
Info: MARGIN                 8
Info: HYDROGEN GROUP CUTOFF  2.5
Info: PATCH DIMENSION        21.5
Info: ENERGY OUTPUT STEPS    100000
Info: ENERGY EVALUATION STEPS    100000
Info: OUTPUT ENERGY PRECISION 4
Info: CROSSTERM ENERGY INCLUDED IN DIHEDRAL
Info: TIMING OUTPUT STEPS    1000000
Info: PRESSURE OUTPUT STEPS  100000
Info: FIXED ATOMS ACTIVE
Info: LANGEVIN DYNAMICS ACTIVE
Info: LANGEVIN TEMPERATURE   30
Info: LANGEVIN USING BBK INTEGRATOR
Info: LANGEVIN DAMPING COEFFICIENT IS 1 INVERSE PS
Info: LANGEVIN DYNAMICS APPLIED TO HYDROGENS
Info: LANGEVIN PISTON PRESSURE CONTROL ACTIVE
Info:        TARGET PRESSURE IS 1.01325 BAR
Info:     OSCILLATION PERIOD IS 50 FS
Info:             DECAY TIME IS 25 FS
Info:     PISTON TEMPERATURE IS 300 K
Info:       PRESSURE CONTROL IS GROUP-BASED
Info:    INITIAL STRAIN RATE IS 0 0 0
Info:       CELL FLUCTUATION IS ISOTROPIC
Info: PARTICLE MESH EWALD (PME) ACTIVE
Info: PME TOLERANCE               1e-06
Info: PME EWALD COEFFICIENT       0.348832
Info: PME INTERPOLATION ORDER     4
Info: PME GRID DIMENSIONS         40 36 36
Info: PME MAXIMUM GRID SPACING    1
Info: FULL ELECTROSTATIC EVALUATION FREQUENCY      2
Info: USING VERLET I (r-RESPA) MTS SCHEME.
Info: C1 SPLITTING OF LONG RANGE ELECTROSTATICS
Info: PLACING ATOMS IN PATCHES BY HYDROGEN GROUPS
Info: RIGID BONDS TO HYDROGEN : ALL
Info:         ERROR TOLERANCE : 1e-08
Info:          MAX ITERATIONS : 100
Info: RIGID WATER USING SETTLE ALGORITHM
Info: RANDOM NUMBER SEED     1743674096
Info: USE HYDROGEN BONDS?    NO
Info: Using AMBER format force field!
Info: AMBER PARM FILE        mobley_4364398.prmtop
Info: COORDINATE PDB         mobley_4364398.pdb
Info: Exclusions will be read from PARM file!
Info: SCNB (VDW SCALING)     2
Info: USING ARITHMETIC MEAN TO COMBINE L-J SIGMA PARAMETERS
Info: BINARY COORDINATES     mobley_4364398_min.coor
Info: SUMMARY OF PARAMETERS:
Info: 4 BONDS
Info: 2 ANGLES
Info:   2 HARMONIC
Info:   0 COSINE-BASED
Info: 0 DIHEDRAL
Info: 0 IMPROPER
Info: 0 CROSSTERM
Info: 0 VDW
Info: 15 VDW_PAIRS
Info: 0 NBTHOLE_PAIRS
Info: STRUCTURE SUMMARY:
Info: 2900 ATOMS
Info: 2899 BONDS
Info: 6 ANGLES
Info: 0 DIHEDRALS
Info: 0 IMPROPERS
Info: 0 CROSSTERMS
Info: 2905 EXCLUSIONS
Info: 5 FIXED ATOMS
Info: 2898 RIGID BONDS
Info: 3 RIGID BONDS BETWEEN FIXED ATOMS
Info: 5790 DEGREES OF FREEDOM
Info: 967 HYDROGEN GROUPS
Info: 4 ATOMS IN LARGEST HYDROGEN GROUP
Info: 967 MIGRATION GROUPS
Info: 4 ATOMS IN LARGEST MIGRATION GROUP
Info: 2 HYDROGEN GROUPS WITH ALL ATOMS FIXED
Info: TOTAL MASS = 17527.4 amu
Info: TOTAL CHARGE = -9.99942e-05 e
Info: MASS DENSITY = 0.669458 g/cm^3
Info: ATOM DENSITY = 0.066703 atoms/A^3
Info: ADDED 0 IMPLICIT EXCLUSIONS
Info: NONBONDED TABLE R-SQUARED SPACING: 0.0625
Info: NONBONDED TABLE SIZE: 705 POINTS
Info: REMOVING COM VELOCITY -0.00237222 0.10296 -0.181595
TCL: Running for 100000 steps
ETITLE: TS BOND ANGLE DIHED IMPRP ELECT VDW BOUNDARY MISC KINETIC TOTAL TEMP POTENTIAL TOTAL3 TEMPAVG PRESSURE GPRESSURE VOLUME PRESSAVG GPRESSAVG
ENERGY: 0 0.0000 0.0000 0.0000 0.0000 -13405.2875 2329.0036 0.0000 0.0000 1775.4782 -9300.8056 308.6222 -11076.2839 -9300.4335 308.6222 235.4520 273.8024 43476.3018 235.4520 273.8024
ENERGY: 100000 0.0000 0.0000 0.0000 0.0000 -13936.3014 2419.9969 0.0000 0.0000 172.0182 -11344.2862 29.9010 -11516.3045 -11343.7939 30.8699 -132.7739 -88.5143 28959.8930 5.0050 4.9299
TCL: Running 100000 steps at 60 kelvin.
TCL: Setting parameter langevinTemp to 60
TCL: Running for 100000 steps
ETITLE: TS BOND ANGLE DIHED IMPRP ELECT VDW BOUNDARY MISC KINETIC TOTAL TEMP POTENTIAL TOTAL3 TEMPAVG PRESSURE GPRESSURE VOLUME PRESSAVG GPRESSAVG
ENERGY: 100000 0.0000 0.0000 0.0000 0.0000 -13936.3014 2419.9969 0.0000 0.0000 171.9318 -11344.3727 29.8860 -11516.3045 -11344.0218 29.8860 -147.4808 -88.3866 28959.8930 -147.4808 -88.3866
ENERGY: 200000 0.0000 0.0000 0.0000 0.0000 -13857.4652 2372.8442 0.0000 0.0000 346.0304 -11138.5906 60.1487 -11484.6210 -11137.5885 59.9299 -286.5033 -227.6417 28790.4525 2.8863 2.8244
TCL: Running 100000 steps at 90 kelvin.
TCL: Setting parameter langevinTemp to 90
TCL: Running for 100000 steps
ETITLE: TS BOND ANGLE DIHED IMPRP ELECT VDW BOUNDARY MISC KINETIC TOTAL TEMP POTENTIAL TOTAL3 TEMPAVG PRESSURE GPRESSURE VOLUME PRESSAVG GPRESSAVG
ENERGY: 200000 0.0000 0.0000 0.0000 0.0000 -13857.4652 2372.8442 0.0000 0.0000 345.8560 -11138.7649 60.1184 -11484.6210 -11137.9328 60.1184 -278.5581 -228.0384 28790.4525 -278.5581 -228.0384
ENERGY: 300000 0.0000 0.0000 0.0000 0.0000 -13800.5133 2394.0820 0.0000 0.0000 520.8231 -10885.6082 90.5320 -11406.4313 -10883.7338 89.9999 223.5651 305.6660 28565.0420 4.7565 4.7337
TCL: Running 100000 steps at 120 kelvin.
TCL: Setting parameter langevinTemp to 120
TCL: Running for 100000 steps
ETITLE: TS BOND ANGLE DIHED IMPRP ELECT VDW BOUNDARY MISC KINETIC TOTAL TEMP POTENTIAL TOTAL3 TEMPAVG PRESSURE GPRESSURE VOLUME PRESSAVG GPRESSAVG
ENERGY: 300000 0.0000 0.0000 0.0000 0.0000 -13800.5133 2394.0820 0.0000 0.0000 520.5568 -10885.8745 90.4857 -11406.4313 -10884.9619 90.4857 257.7478 306.2074 28565.0420 257.7478 306.2074
ENERGY: 400000 0.0000 0.0000 0.0000 0.0000 -13585.1836 2266.8549 0.0000 0.0000 688.1180 -10630.2107 119.6120 -11318.3286 -10627.8569 119.9986 -450.7011 -406.4266 28576.8378 3.9087 3.9665
TCL: Running 100000 steps at 150 kelvin.
TCL: Setting parameter langevinTemp to 150
TCL: Running for 100000 steps
ETITLE: TS BOND ANGLE DIHED IMPRP ELECT VDW BOUNDARY MISC KINETIC TOTAL TEMP POTENTIAL TOTAL3 TEMPAVG PRESSURE GPRESSURE VOLUME PRESSAVG GPRESSAVG
ENERGY: 400000 0.0000 0.0000 0.0000 0.0000 -13585.1836 2266.8549 0.0000 0.0000 687.7642 -10630.5644 119.5505 -11318.3286 -10629.1667 119.5505 -439.0389 -406.1930 28576.8378 -439.0389 -406.1930
ENERGY: 500000 0.0000 0.0000 0.0000 0.0000 -13211.4026 2126.5865 0.0000 0.0000 861.1439 -10223.6722 149.6882 -11084.8161 -10221.5942 149.8233 -814.0169 -747.3600 28687.7555 2.6617 2.8044
TCL: Running 100000 steps at 180 kelvin.
TCL: Setting parameter langevinTemp to 180
TCL: Running for 100000 steps
ETITLE: TS BOND ANGLE DIHED IMPRP ELECT VDW BOUNDARY MISC KINETIC TOTAL TEMP POTENTIAL TOTAL3 TEMPAVG PRESSURE GPRESSURE VOLUME PRESSAVG GPRESSAVG
ENERGY: 500000 0.0000 0.0000 0.0000 0.0000 -13211.4026 2126.5865 0.0000 0.0000 860.7037 -10224.1125 149.6117 -11084.8161 -10222.3451 149.6117 -792.7631 -747.4593 28687.7555 -792.7631 -747.4593
ENERGY: 600000 0.0000 0.0000 0.0000 0.0000 -12834.5769 1990.3955 0.0000 0.0000 1009.9288 -9834.2526 175.5507 -10844.1814 -9832.4465 179.7531 -1018.3139 -963.0432 28619.8622 4.4189 4.3945
TCL: Running 100000 steps at 210 kelvin.
TCL: Setting parameter langevinTemp to 210
TCL: Running for 100000 steps
ETITLE: TS BOND ANGLE DIHED IMPRP ELECT VDW BOUNDARY MISC KINETIC TOTAL TEMP POTENTIAL TOTAL3 TEMPAVG PRESSURE GPRESSURE VOLUME PRESSAVG GPRESSAVG
ENERGY: 600000 0.0000 0.0000 0.0000 0.0000 -12834.5769 1990.3955 0.0000 0.0000 1009.3868 -9834.7946 175.4565 -10844.1814 -9832.6454 175.4565 -1021.6709 -964.3216 28619.8622 -1021.6709 -964.3216
ENERGY: 700000 0.0000 0.0000 0.0000 0.0000 -12157.6435 1754.6489 0.0000 0.0000 1173.3556 -9229.6389 203.9583 -10402.9945 -9225.9966 209.1929 -1139.8738 -1114.0116 28462.0354 3.0631 2.9873
TCL: Running 100000 steps at 240 kelvin.
TCL: Setting parameter langevinTemp to 240
TCL: Running for 100000 steps
ETITLE: TS BOND ANGLE DIHED IMPRP ELECT VDW BOUNDARY MISC KINETIC TOTAL TEMP POTENTIAL TOTAL3 TEMPAVG PRESSURE GPRESSURE VOLUME PRESSAVG GPRESSAVG
ENERGY: 700000 0.0000 0.0000 0.0000 0.0000 -12157.6435 1754.6489 0.0000 0.0000 1172.7624 -9230.2321 203.8552 -10402.9945 -9227.7560 203.8552 -1180.0222 -1112.9977 28462.0354 -1180.0222 -1112.9977
ENERGY: 800000 0.0000 0.0000 0.0000 0.0000 -11640.0147 1719.0487 0.0000 0.0000 1411.4279 -8509.5382 245.3412 -9920.9660 -8506.2033 239.5866 330.4486 365.6005 28616.9307 2.7558 2.8707
TCL: Running 100000 steps at 270 kelvin.
TCL: Setting parameter langevinTemp to 270
TCL: Running for 100000 steps
ETITLE: TS BOND ANGLE DIHED IMPRP ELECT VDW BOUNDARY MISC KINETIC TOTAL TEMP POTENTIAL TOTAL3 TEMPAVG PRESSURE GPRESSURE VOLUME PRESSAVG GPRESSAVG
ENERGY: 800000 0.0000 0.0000 0.0000 0.0000 -11640.0147 1719.0487 0.0000 0.0000 1410.7102 -8510.2559 245.2165 -9920.9660 -8508.0180 245.2165 279.3412 366.2401 28616.9307 279.3412 366.2401
ENERGY: 900000 0.0000 0.0000 0.0000 0.0000 -11038.1059 1503.1277 0.0000 0.0000 1552.4594 -7982.5188 269.8560 -9534.9781 -7979.5591 270.1106 -189.3318 -124.1919 28945.7784 3.1469 3.0455
TCL: Running 1000000 steps at 300 kelvin.
TCL: Setting parameter langevinTemp to 300
TCL: Running for 1000000 steps
ETITLE: TS BOND ANGLE DIHED IMPRP ELECT VDW BOUNDARY MISC KINETIC TOTAL TEMP POTENTIAL TOTAL3 TEMPAVG PRESSURE GPRESSURE VOLUME PRESSAVG GPRESSAVG
ENERGY: 900000 0.0000 0.0000 0.0000 0.0000 -11038.1059 1503.1277 0.0000 0.0000 1551.6743 -7983.3038 269.7195 -9534.9781 -7980.4533 269.7195 -202.8645 -123.3651 28945.7784 -202.8645 -123.3651
ENERGY: 1100000 0.0000 0.0000 0.0000 0.0000 -10435.1573 1360.0066 0.0000 0.0000 1684.1054 -7391.0453 292.7393 -9075.1507 -7389.7385 300.0512 -458.6152 -383.3343 30338.4944 3.9484 3.8105
ENERGY: 1300000 0.0000 0.0000 0.0000 0.0000 -10548.8760 1403.4703 0.0000 0.0000 1694.9713 -7450.4344 294.6281 -9145.4057 -7446.5351 300.5338 -315.6318 -171.2245 29874.9898 3.6121 3.5906
ENERGY: 1500000 0.0000 0.0000 0.0000 0.0000 -10544.4059 1435.9394 0.0000 0.0000 1730.6079 -7377.8585 300.8226 -9108.4664 -7375.4735 300.7773 41.3251 119.4580 30163.8353 3.6728 3.5450
ENERGY: 1700000 0.0000 0.0000 0.0000 0.0000 -10570.1220 1427.8630 0.0000 0.0000 1699.6518 -7442.6071 295.4417 -9142.2590 -7442.8500 299.9235 70.1186 205.2556 29784.7683 2.7837 2.8334
ENERGY: 1900000 0.0000 0.0000 0.0000 0.0000 -10478.3559 1372.0417 0.0000 0.0000 1709.9499 -7396.3643 297.2317 -9106.3142 -7393.5664 299.9160 -476.8351 -372.4397 30182.2370 3.6326 3.4540
TCL: Exiting due to exit command.
