Info: SIMULATION PARAMETERS:
Info: TIMESTEP               2
Info: NUMBER OF STEPS        0
Info: STEPS PER CYCLE        10
Info: PERIODIC CELL BASIS 1  36.592 0 0
Info: PERIODIC CELL BASIS 2  0 34.696 0
Info: PERIODIC CELL BASIS 3  0 0 34.954
Info: PERIODIC CELL CENTER   0 0 0
Info: WRAPPING WATERS AROUND PERIODIC BOUNDARIES ON OUTPUT.
Info: WRAPPING ALL CLUSTERS AROUND PERIODIC BOUNDARIES ON OUTPUT.
Info: FIRST LDB TIMESTEP     50
Info: LAST LDB TIMESTEP     -1
Info: HOM BACKGROUND SCALING 1
Info: PME BACKGROUND SCALING 1
Info: MIN ATOMS PER PATCH    40
Info: EMPTY PATCH LOAD       40 ATOMS
Info: INITIAL TEMPERATURE    300
Info: CENTER OF MASS MOVING INITIALLY? NO
Info: DIELECTRIC             1
Info: EXCLUDE                SCALED ONE-FOUR
Info: 1-4 ELECTROSTATICS SCALED BY 0.833333
Info: MODIFIED 1-4 VDW PARAMETERS WILL BE USED
Info: DCD FILENAME           mobley_1857976_equil.dcd
Info: DCD FREQUENCY          100000
Info: DCD FIRST STEP         100000
Info: DCD FILE WILL CONTAIN UNIT CELL DATA
Info: XST FILENAME           mobley_1857976_equil.xst
Info: XST FREQUENCY          100000
Info: NO VELOCITY DCD OUTPUT
Info: NO FORCE DCD OUTPUT
Info: OUTPUT FILENAME        mobley_1857976_equil
Info: BINARY OUTPUT FILES WILL BE USED
Info: RESTART FILENAME       mobley_1857976_equil.restart
Info: RESTART FREQUENCY      100000
Info: BINARY RESTART FILES WILL BE USED
Info: CUTOFF                 9
Info: PAIRLIST DISTANCE      11
Info: PAIRLIST SHRINK RATE   0.01
Info: PAIRLIST GROW RATE     0.01
Info: PAIRLIST TRIGGER       0.3
Info: PAIRLISTS PER CYCLE    2
Info: PAIRLISTS ENABLED
Info: MARGIN                 8
Info: HYDROGEN GROUP CUTOFF  2.5
Info: PATCH DIMENSION        21.5
Info: ENERGY OUTPUT STEPS    100000
Info: ENERGY EVALUATION STEPS    100000
Info: OUTPUT ENERGY PRECISION 4
Info: CROSSTERM ENERGY INCLUDED IN DIHEDRAL
Info: TIMING OUTPUT STEPS    1000000
Info: PRESSURE OUTPUT STEPS  100000
Info: FIXED ATOMS ACTIVE
Info: LANGEVIN DYNAMICS ACTIVE
Info: LANGEVIN TEMPERATURE   30
Info: LANGEVIN USING BBK INTEGRATOR
Info: LANGEVIN DAMPING COEFFICIENT IS 1 INVERSE PS
Info: LANGEVIN DYNAMICS APPLIED TO HYDROGENS
Info: LANGEVIN PISTON PRESSURE CONTROL ACTIVE
Info:        TARGET PRESSURE IS 1.01325 BAR
Info:     OSCILLATION PERIOD IS 50 FS
Info:             DECAY TIME IS 25 FS
Info:     PISTON TEMPERATURE IS 300 K
Info:       PRESSURE CONTROL IS GROUP-BASED
Info:    INITIAL STRAIN RATE IS 0 0 0
Info:       CELL FLUCTUATION IS ISOTROPIC
Info: PARTICLE MESH EWALD (PME) ACTIVE
Info: PME TOLERANCE               1e-06
Info: PME EWALD COEFFICIENT       0.348832
Info: PME INTERPOLATION ORDER     4
Info: PME GRID DIMENSIONS         40 36 36
Info: PME MAXIMUM GRID SPACING    1
Info: FULL ELECTROSTATIC EVALUATION FREQUENCY      2
Info: USING VERLET I (r-RESPA) MTS SCHEME.
Info: C1 SPLITTING OF LONG RANGE ELECTROSTATICS
Info: PLACING ATOMS IN PATCHES BY HYDROGEN GROUPS
Info: RIGID BONDS TO HYDROGEN : ALL
Info:         ERROR TOLERANCE : 1e-08
Info:          MAX ITERATIONS : 100
Info: RIGID WATER USING SETTLE ALGORITHM
Info: RANDOM NUMBER SEED     1743900539
Info: USE HYDROGEN BONDS?    NO
Info: Using AMBER format force field!
Info: AMBER PARM FILE        mobley_1857976.prmtop
Info: COORDINATE PDB         mobley_1857976.pdb
Info: Exclusions will be read from PARM file!
Info: SCNB (VDW SCALING)     2
Info: USING ARITHMETIC MEAN TO COMBINE L-J SIGMA PARAMETERS
Info: BINARY COORDINATES     mobley_1857976_min.coor
Info: SUMMARY OF PARAMETERS:
Info: 5 BONDS
Info: 4 ANGLES
Info:   4 HARMONIC
Info:   0 COSINE-BASED
Info: 4 DIHEDRAL
Info: 0 IMPROPER
Info: 0 CROSSTERM
Info: 0 VDW
Info: 15 VDW_PAIRS
Info: 0 NBTHOLE_PAIRS
Info: STRUCTURE SUMMARY:
Info: 2969 ATOMS
Info: 2968 BONDS
Info: 12 ANGLES
Info: 14 DIHEDRALS
Info: 0 IMPROPERS
Info: 0 CROSSTERMS
Info: 2989 EXCLUSIONS
Info: 8 FIXED ATOMS
Info: 2965 RIGID BONDS
Info: 4 RIGID BONDS BETWEEN FIXED ATOMS
Info: 5922 DEGREES OF FREEDOM
Info: 991 HYDROGEN GROUPS
Info: 3 ATOMS IN LARGEST HYDROGEN GROUP
Info: 991 MIGRATION GROUPS
Info: 3 ATOMS IN LARGEST MIGRATION GROUP
Info: 4 HYDROGEN GROUPS WITH ALL ATOMS FIXED
Info: TOTAL MASS = 17880.7 amu
Info: TOTAL CHARGE = 1.11759e-08 e
Info: MASS DENSITY = 0.669087 g/cm^3
Info: ATOM DENSITY = 0.0669033 atoms/A^3
Info: ADDED 0 IMPLICIT EXCLUSIONS
Info: NONBONDED TABLE R-SQUARED SPACING: 0.0625
Info: NONBONDED TABLE SIZE: 705 POINTS
Info: REMOVING COM VELOCITY -0.0600602 -0.126576 -0.210862
TCL: Running for 100000 steps
ETITLE: TS BOND ANGLE DIHED IMPRP ELECT VDW BOUNDARY MISC KINETIC TOTAL TEMP POTENTIAL TOTAL3 TEMPAVG PRESSURE GPRESSURE VOLUME PRESSAVG GPRESSAVG
ENERGY: 0 0.0000 0.0000 0.0000 0.0000 -13717.5093 2395.1990 0.0000 0.0000 1739.2896 -9583.0208 295.5928 -11322.3103 -9582.6906 295.5928 321.2422 356.0883 44377.4597 321.2422 356.0883
ENERGY: 100000 0.0000 0.0000 0.0000 0.0000 -14532.1701 2694.0769 0.0000 0.0000 180.2065 -11657.8868 30.6261 -11838.0932 -11657.6561 30.9407 1838.4302 1879.7540 28663.7070 3.8685 3.8477
TCL: Running 100000 steps at 60 kelvin.
TCL: Setting parameter langevinTemp to 60
TCL: Running for 100000 steps
ETITLE: TS BOND ANGLE DIHED IMPRP ELECT VDW BOUNDARY MISC KINETIC TOTAL TEMP POTENTIAL TOTAL3 TEMPAVG PRESSURE GPRESSURE VOLUME PRESSAVG GPRESSAVG
ENERGY: 100000 0.0000 0.0000 0.0000 0.0000 -14532.1701 2694.0769 0.0000 0.0000 180.1171 -11657.9761 30.6110 -11838.0932 -11657.6062 30.6110 1828.5955 1879.4561 28663.7070 1828.5955 1879.4561
ENERGY: 200000 0.0000 0.0000 0.0000 0.0000 -14263.7999 2525.5496 0.0000 0.0000 355.7067 -11382.5436 60.4525 -11738.2503 -11382.0678 59.9296 688.1571 751.9822 28922.9650 4.3571 4.3442
TCL: Running 100000 steps at 90 kelvin.
TCL: Setting parameter langevinTemp to 90
TCL: Running for 100000 steps
ETITLE: TS BOND ANGLE DIHED IMPRP ELECT VDW BOUNDARY MISC KINETIC TOTAL TEMP POTENTIAL TOTAL3 TEMPAVG PRESSURE GPRESSURE VOLUME PRESSAVG GPRESSAVG
ENERGY: 200000 0.0000 0.0000 0.0000 0.0000 -14263.7999 2525.5496 0.0000 0.0000 355.5342 -11382.7161 60.4231 -11738.2503 -11382.0867 60.4231 685.3390 752.1699 28922.9650 685.3390 752.1699
ENERGY: 300000 0.0000 0.0000 0.0000 0.0000 -14112.4160 2472.9176 0.0000 0.0000 536.1520 -11103.3464 91.1192 -11639.4984 -11102.5761 89.9290 687.1942 754.5401 28943.3461 4.8655 4.9537
TCL: Running 100000 steps at 120 kelvin.
TCL: Setting parameter langevinTemp to 120
TCL: Running for 100000 steps
ETITLE: TS BOND ANGLE DIHED IMPRP ELECT VDW BOUNDARY MISC KINETIC TOTAL TEMP POTENTIAL TOTAL3 TEMPAVG PRESSURE GPRESSURE VOLUME PRESSAVG GPRESSAVG
ENERGY: 300000 0.0000 0.0000 0.0000 0.0000 -14112.4160 2472.9176 0.0000 0.0000 535.8692 -11103.6292 91.0711 -11639.4984 -11102.6646 91.0711 699.9638 754.2091 28943.3461 699.9638 754.2091
ENERGY: 400000 0.0000 0.0000 0.0000 0.0000 -13887.4119 2328.9490 0.0000 0.0000 723.0304 -10835.4325 122.8792 -11558.4629 -10832.9147 119.9083 -75.4953 -48.7104 28817.8276 3.7069 3.7416
TCL: Running 100000 steps at 150 kelvin.
TCL: Setting parameter langevinTemp to 150
TCL: Running for 100000 steps
ETITLE: TS BOND ANGLE DIHED IMPRP ELECT VDW BOUNDARY MISC KINETIC TOTAL TEMP POTENTIAL TOTAL3 TEMPAVG PRESSURE GPRESSURE VOLUME PRESSAVG GPRESSAVG
ENERGY: 400000 0.0000 0.0000 0.0000 0.0000 -13887.4119 2328.9490 0.0000 0.0000 722.6888 -10835.7741 122.8212 -11558.4629 -10834.2061 122.8212 -100.5047 -48.1555 28817.8276 -100.5047 -48.1555
ENERGY: 500000 0.0000 0.0000 0.0000 0.0000 -13528.2998 2137.7313 0.0000 0.0000 914.5979 -10475.9706 155.4362 -11390.5685 -10474.6064 150.0745 -1113.0149 -1104.4584 29101.8274 4.2022 4.0859
TCL: Running 100000 steps at 180 kelvin.
TCL: Setting parameter langevinTemp to 180
TCL: Running for 100000 steps
ETITLE: TS BOND ANGLE DIHED IMPRP ELECT VDW BOUNDARY MISC KINETIC TOTAL TEMP POTENTIAL TOTAL3 TEMPAVG PRESSURE GPRESSURE VOLUME PRESSAVG GPRESSAVG
ENERGY: 500000 0.0000 0.0000 0.0000 0.0000 -13528.2998 2137.7313 0.0000 0.0000 914.1732 -10476.3954 155.3640 -11390.5685 -10474.0496 155.3640 -1159.6321 -1106.0648 29101.8274 -1159.6321 -1106.0648
ENERGY: 600000 0.0000 0.0000 0.0000 0.0000 -13428.0302 2269.7268 0.0000 0.0000 1047.2918 -10111.0117 177.9876 -11158.3034 -10109.8684 179.9409 961.9531 956.0923 28882.1263 3.6879 3.6624
TCL: Running 100000 steps at 210 kelvin.
TCL: Setting parameter langevinTemp to 210
TCL: Running for 100000 steps
ETITLE: TS BOND ANGLE DIHED IMPRP ELECT VDW BOUNDARY MISC KINETIC TOTAL TEMP POTENTIAL TOTAL3 TEMPAVG PRESSURE GPRESSURE VOLUME PRESSAVG GPRESSAVG
ENERGY: 600000 0.0000 0.0000 0.0000 0.0000 -13428.0302 2269.7268 0.0000 0.0000 1046.7606 -10111.5428 177.8973 -11158.3034 -10109.8364 177.8973 901.2967 955.6233 28882.1263 901.2967 955.6233
ENERGY: 700000 0.0000 0.0000 0.0000 0.0000 -12508.2058 1917.7746 0.0000 0.0000 1263.6092 -9326.8220 214.7508 -10590.4311 -9324.7054 210.0593 132.0613 209.4558 28824.5428 2.1331 2.1589
TCL: Running 100000 steps at 240 kelvin.
TCL: Setting parameter langevinTemp to 240
TCL: Running for 100000 steps
ETITLE: TS BOND ANGLE DIHED IMPRP ELECT VDW BOUNDARY MISC KINETIC TOTAL TEMP POTENTIAL TOTAL3 TEMPAVG PRESSURE GPRESSURE VOLUME PRESSAVG GPRESSAVG
ENERGY: 700000 0.0000 0.0000 0.0000 0.0000 -12508.2058 1917.7746 0.0000 0.0000 1262.9991 -9327.4320 214.6471 -10590.4311 -9325.6663 214.6471 125.1647 208.7000 28824.5428 125.1647 208.7000
ENERGY: 800000 0.0000 0.0000 0.0000 0.0000 -11886.7275 1743.2316 0.0000 0.0000 1416.4708 -8727.0252 240.7297 -10143.4959 -8725.5529 240.5628 -94.7410 -24.9185 29659.5779 4.0984 3.9307
TCL: Running 100000 steps at 270 kelvin.
TCL: Setting parameter langevinTemp to 270
TCL: Running for 100000 steps
ETITLE: TS BOND ANGLE DIHED IMPRP ELECT VDW BOUNDARY MISC KINETIC TOTAL TEMP POTENTIAL TOTAL3 TEMPAVG PRESSURE GPRESSURE VOLUME PRESSAVG GPRESSAVG
ENERGY: 800000 0.0000 0.0000 0.0000 0.0000 -11886.7275 1743.2316 0.0000 0.0000 1415.7360 -8727.7599 240.6048 -10143.4959 -8725.9840 240.6048 -106.1816 -25.9379 29659.5779 -106.1816 -25.9379
ENERGY: 900000 0.0000 0.0000 0.0000 0.0000 -11417.0664 1626.5958 0.0000 0.0000 1573.0622 -8217.4085 267.3424 -9790.4706 -8213.5808 270.6948 436.2692 550.3605 29344.4821 2.6466 2.5276
TCL: Running 1000000 steps at 300 kelvin.
TCL: Setting parameter langevinTemp to 300
TCL: Running for 1000000 steps
ETITLE: TS BOND ANGLE DIHED IMPRP ELECT VDW BOUNDARY MISC KINETIC TOTAL TEMP POTENTIAL TOTAL3 TEMPAVG PRESSURE GPRESSURE VOLUME PRESSAVG GPRESSAVG
ENERGY: 900000 0.0000 0.0000 0.0000 0.0000 -11417.0664 1626.5958 0.0000 0.0000 1572.2920 -8218.1787 267.2115 -9790.4706 -8216.4208 267.2115 467.3010 552.6947 29344.4821 467.3010 552.6947
ENERGY: 1100000 0.0000 0.0000 0.0000 0.0000 -10593.7342 1329.8477 0.0000 0.0000 1831.4822 -7432.4043 311.2610 -9263.8865 -7430.9406 300.3759 -856.3899 -832.5060 31244.7448 2.8917 2.7828
ENERGY: 1300000 0.0000 0.0000 0.0000 0.0000 -10789.7148 1420.8394 0.0000 0.0000 1763.0558 -7605.8195 299.6319 -9368.8753 -7604.3050 300.2966 -154.9651 -108.9683 30509.1435 2.8720 3.0046
ENERGY: 1500000 0.0000 0.0000 0.0000 0.0000 -10690.8765 1417.2209 0.0000 0.0000 1773.3392 -7500.3164 301.3796 -9273.6556 -7495.0838 300.2691 -18.5989 22.7332 30745.9428 3.9382 4.0056
ENERGY: 1700000 0.0000 0.0000 0.0000 0.0000 -10748.7075 1451.9065 0.0000 0.0000 1752.5493 -7544.2517 297.8463 -9296.8011 -7539.9727 300.4689 -234.4892 -179.2539 31097.7953 2.6269 2.7581
ENERGY: 1900000 0.0000 0.0000 0.0000 0.0000 -10784.0397 1400.0904 0.0000 0.0000 1727.6667 -7656.2826 293.6175 -9383.9493 -7653.8860 299.9585 -491.6207 -416.0992 30440.2573 3.2859 3.1010
TCL: Exiting due to exit command.
