Info: SIMULATION PARAMETERS:
Info: TIMESTEP               2
Info: NUMBER OF STEPS        0
Info: STEPS PER CYCLE        10
Info: PERIODIC CELL BASIS 1  37.399 0 0
Info: PERIODIC CELL BASIS 2  0 35.779 0
Info: PERIODIC CELL BASIS 3  0 0 31.855
Info: PERIODIC CELL CENTER   0 0 0
Info: WRAPPING WATERS AROUND PERIODIC BOUNDARIES ON OUTPUT.
Info: WRAPPING ALL CLUSTERS AROUND PERIODIC BOUNDARIES ON OUTPUT.
Info: FIRST LDB TIMESTEP     50
Info: LAST LDB TIMESTEP     -1
Info: HOM BACKGROUND SCALING 1
Info: PME BACKGROUND SCALING 1
Info: MIN ATOMS PER PATCH    40
Info: EMPTY PATCH LOAD       40 ATOMS
Info: INITIAL TEMPERATURE    300
Info: CENTER OF MASS MOVING INITIALLY? NO
Info: DIELECTRIC             1
Info: EXCLUDE                SCALED ONE-FOUR
Info: 1-4 ELECTROSTATICS SCALED BY 0.833333
Info: MODIFIED 1-4 VDW PARAMETERS WILL BE USED
Info: DCD FILENAME           mobley_852937_equil.dcd
Info: DCD FREQUENCY          100000
Info: DCD FIRST STEP         100000
Info: DCD FILE WILL CONTAIN UNIT CELL DATA
Info: XST FILENAME           mobley_852937_equil.xst
Info: XST FREQUENCY          100000
Info: NO VELOCITY DCD OUTPUT
Info: NO FORCE DCD OUTPUT
Info: OUTPUT FILENAME        mobley_852937_equil
Info: BINARY OUTPUT FILES WILL BE USED
Info: RESTART FILENAME       mobley_852937_equil.restart
Info: RESTART FREQUENCY      100000
Info: BINARY RESTART FILES WILL BE USED
Info: CUTOFF                 9
Info: PAIRLIST DISTANCE      11
Info: PAIRLIST SHRINK RATE   0.01
Info: PAIRLIST GROW RATE     0.01
Info: PAIRLIST TRIGGER       0.3
Info: PAIRLISTS PER CYCLE    2
Info: PAIRLISTS ENABLED
Info: MARGIN                 8
Info: HYDROGEN GROUP CUTOFF  2.5
Info: PATCH DIMENSION        21.5
Info: ENERGY OUTPUT STEPS    100000
Info: ENERGY EVALUATION STEPS    100000
Info: OUTPUT ENERGY PRECISION 4
Info: CROSSTERM ENERGY INCLUDED IN DIHEDRAL
Info: TIMING OUTPUT STEPS    1000000
Info: PRESSURE OUTPUT STEPS  100000
Info: FIXED ATOMS ACTIVE
Info: LANGEVIN DYNAMICS ACTIVE
Info: LANGEVIN TEMPERATURE   30
Info: LANGEVIN USING BBK INTEGRATOR
Info: LANGEVIN DAMPING COEFFICIENT IS 1 INVERSE PS
Info: LANGEVIN DYNAMICS APPLIED TO HYDROGENS
Info: LANGEVIN PISTON PRESSURE CONTROL ACTIVE
Info:        TARGET PRESSURE IS 1.01325 BAR
Info:     OSCILLATION PERIOD IS 50 FS
Info:             DECAY TIME IS 25 FS
Info:     PISTON TEMPERATURE IS 300 K
Info:       PRESSURE CONTROL IS GROUP-BASED
Info:    INITIAL STRAIN RATE IS 0 0 0
Info:       CELL FLUCTUATION IS ISOTROPIC
Info: PARTICLE MESH EWALD (PME) ACTIVE
Info: PME TOLERANCE               1e-06
Info: PME EWALD COEFFICIENT       0.348832
Info: PME INTERPOLATION ORDER     4
Info: PME GRID DIMENSIONS         40 36 32
Info: PME MAXIMUM GRID SPACING    1
Info: FULL ELECTROSTATIC EVALUATION FREQUENCY      2
Info: USING VERLET I (r-RESPA) MTS SCHEME.
Info: C1 SPLITTING OF LONG RANGE ELECTROSTATICS
Info: PLACING ATOMS IN PATCHES BY HYDROGEN GROUPS
Info: RIGID BONDS TO HYDROGEN : ALL
Info:         ERROR TOLERANCE : 1e-08
Info:          MAX ITERATIONS : 100
Info: RIGID WATER USING SETTLE ALGORITHM
Info: RANDOM NUMBER SEED     1743730881
Info: USE HYDROGEN BONDS?    NO
Info: Using AMBER format force field!
Info: AMBER PARM FILE        mobley_852937.prmtop
Info: COORDINATE PDB         mobley_852937.pdb
Info: Exclusions will be read from PARM file!
Info: SCNB (VDW SCALING)     2
Info: USING ARITHMETIC MEAN TO COMBINE L-J SIGMA PARAMETERS
Info: BINARY COORDINATES     mobley_852937_min.coor
Info: SUMMARY OF PARAMETERS:
Info: 7 BONDS
Info: 5 ANGLES
Info:   5 HARMONIC
Info:   0 COSINE-BASED
Info: 3 DIHEDRAL
Info: 0 IMPROPER
Info: 0 CROSSTERM
Info: 0 VDW
Info: 21 VDW_PAIRS
Info: 0 NBTHOLE_PAIRS
Info: STRUCTURE SUMMARY:
Info: 2929 ATOMS
Info: 2929 BONDS
Info: 19 ANGLES
Info: 32 DIHEDRALS
Info: 0 IMPROPERS
Info: 0 CROSSTERMS
Info: 2971 EXCLUSIONS
Info: 13 FIXED ATOMS
Info: 2921 RIGID BONDS
Info: 5 RIGID BONDS BETWEEN FIXED ATOMS
Info: 5832 DEGREES OF FREEDOM
Info: 980 HYDROGEN GROUPS
Info: 3 ATOMS IN LARGEST HYDROGEN GROUP
Info: 980 MIGRATION GROUPS
Info: 3 ATOMS IN LARGEST MIGRATION GROUP
Info: 8 HYDROGEN GROUPS WITH ALL ATOMS FIXED
Info: TOTAL MASS = 17623.7 amu
Info: TOTAL CHARGE = 0.000199996 e
Info: MASS DENSITY = 0.686577 g/cm^3
Info: ATOM DENSITY = 0.0687153 atoms/A^3
Info: ADDED 0 IMPLICIT EXCLUSIONS
Info: NONBONDED TABLE R-SQUARED SPACING: 0.0625
Info: NONBONDED TABLE SIZE: 705 POINTS
Info: REMOVING COM VELOCITY 0.111067 -0.0911132 0.0627309
TCL: Running for 100000 steps
ETITLE: TS BOND ANGLE DIHED IMPRP ELECT VDW BOUNDARY MISC KINETIC TOTAL TEMP POTENTIAL TOTAL3 TEMPAVG PRESSURE GPRESSURE VOLUME PRESSAVG GPRESSAVG
ENERGY: 0 0.0000 0.0000 0.0000 0.0000 -13624.5908 2360.2941 0.0000 0.0000 1703.1015 -9561.1952 293.9094 -11264.2967 -9560.8764 293.9094 168.2771 211.2962 42625.1379 168.2771 211.2962
ENERGY: 100000 0.0000 0.0000 0.0000 0.0000 -14126.1423 2391.6257 0.0000 0.0000 177.8420 -11556.6746 30.6907 -11734.5166 -11556.2638 30.8362 -676.4148 -616.9007 28936.8648 4.0941 4.0424
TCL: Running 100000 steps at 60 kelvin.
TCL: Setting parameter langevinTemp to 60
TCL: Running for 100000 steps
ETITLE: TS BOND ANGLE DIHED IMPRP ELECT VDW BOUNDARY MISC KINETIC TOTAL TEMP POTENTIAL TOTAL3 TEMPAVG PRESSURE GPRESSURE VOLUME PRESSAVG GPRESSAVG
ENERGY: 100000 0.0000 0.0000 0.0000 0.0000 -14126.1423 2391.6257 0.0000 0.0000 177.7533 -11556.7633 30.6754 -11734.5166 -11556.2785 30.6754 -680.7476 -616.9693 28936.8648 -680.7476 -616.9693
ENERGY: 200000 0.0000 0.0000 0.0000 0.0000 -14111.5782 2492.8409 0.0000 0.0000 351.5337 -11267.2036 60.6652 -11618.7373 -11266.2469 59.9105 597.1273 619.3249 28819.6278 4.6940 4.6663
TCL: Running 100000 steps at 90 kelvin.
TCL: Setting parameter langevinTemp to 90
TCL: Running for 100000 steps
ETITLE: TS BOND ANGLE DIHED IMPRP ELECT VDW BOUNDARY MISC KINETIC TOTAL TEMP POTENTIAL TOTAL3 TEMPAVG PRESSURE GPRESSURE VOLUME PRESSAVG GPRESSAVG
ENERGY: 200000 0.0000 0.0000 0.0000 0.0000 -14111.5782 2492.8409 0.0000 0.0000 351.3570 -11267.3803 60.6347 -11618.7373 -11266.7137 60.6347 553.3715 619.6742 28819.6278 553.3715 619.6742
ENERGY: 300000 0.0000 0.0000 0.0000 0.0000 -13883.7101 2366.7780 0.0000 0.0000 507.0122 -11009.9199 87.4966 -11516.9322 -11008.7268 89.8235 222.9160 290.7909 28433.4451 3.4142 3.2789
TCL: Running 100000 steps at 120 kelvin.
TCL: Setting parameter langevinTemp to 120
TCL: Running for 100000 steps
ETITLE: TS BOND ANGLE DIHED IMPRP ELECT VDW BOUNDARY MISC KINETIC TOTAL TEMP POTENTIAL TOTAL3 TEMPAVG PRESSURE GPRESSURE VOLUME PRESSAVG GPRESSAVG
ENERGY: 300000 0.0000 0.0000 0.0000 0.0000 -13883.7101 2366.7780 0.0000 0.0000 506.7540 -11010.1782 87.4521 -11516.9322 -11009.2820 87.4521 228.5220 290.8051 28433.4451 228.5220 290.8051
ENERGY: 400000 0.0000 0.0000 0.0000 0.0000 -13701.1398 2272.5694 0.0000 0.0000 699.6962 -10728.8742 120.7487 -11428.5704 -10727.7108 120.0909 24.0865 31.3303 28003.6685 5.4053 5.3613
TCL: Running 100000 steps at 150 kelvin.
TCL: Setting parameter langevinTemp to 150
TCL: Running for 100000 steps
ETITLE: TS BOND ANGLE DIHED IMPRP ELECT VDW BOUNDARY MISC KINETIC TOTAL TEMP POTENTIAL TOTAL3 TEMPAVG PRESSURE GPRESSURE VOLUME PRESSAVG GPRESSAVG
ENERGY: 400000 0.0000 0.0000 0.0000 0.0000 -13701.1398 2272.5694 0.0000 0.0000 699.3588 -10729.2116 120.6905 -11428.5704 -10727.8661 120.6905 -23.2561 30.5983 28003.6685 -23.2561 30.5983
ENERGY: 500000 0.0000 0.0000 0.0000 0.0000 -13489.5230 2199.1815 0.0000 0.0000 869.7285 -10420.6130 150.0917 -11290.3415 -10418.8029 149.8915 -529.9046 -439.5001 28726.2831 4.2416 4.1993
TCL: Running 100000 steps at 180 kelvin.
TCL: Setting parameter langevinTemp to 180
TCL: Running for 100000 steps
ETITLE: TS BOND ANGLE DIHED IMPRP ELECT VDW BOUNDARY MISC KINETIC TOTAL TEMP POTENTIAL TOTAL3 TEMPAVG PRESSURE GPRESSURE VOLUME PRESSAVG GPRESSAVG
ENERGY: 500000 0.0000 0.0000 0.0000 0.0000 -13489.5230 2199.1815 0.0000 0.0000 869.2861 -10421.0555 150.0153 -11290.3415 -10419.7012 150.0153 -504.4570 -439.5694 28726.2831 -504.4570 -439.5694
ENERGY: 600000 0.0000 0.0000 0.0000 0.0000 -13060.9615 2075.8102 0.0000 0.0000 1036.8278 -9948.3235 178.9285 -10985.1513 -9945.0663 179.9432 -432.5557 -342.3682 28833.0251 4.9032 4.9516
TCL: Running 100000 steps at 210 kelvin.
TCL: Setting parameter langevinTemp to 210
TCL: Running for 100000 steps
ETITLE: TS BOND ANGLE DIHED IMPRP ELECT VDW BOUNDARY MISC KINETIC TOTAL TEMP POTENTIAL TOTAL3 TEMPAVG PRESSURE GPRESSURE VOLUME PRESSAVG GPRESSAVG
ENERGY: 600000 0.0000 0.0000 0.0000 0.0000 -13060.9615 2075.8102 0.0000 0.0000 1036.2967 -9948.8546 178.8368 -10985.1513 -9946.8519 178.8368 -394.7083 -340.8350 28833.0251 -394.7083 -340.8350
ENERGY: 700000 0.0000 0.0000 0.0000 0.0000 -12346.8894 1887.6590 0.0000 0.0000 1243.6213 -9215.6091 214.6155 -10459.2304 -9211.4313 210.3536 110.6395 138.6314 28789.7338 4.2116 4.1796
TCL: Running 100000 steps at 240 kelvin.
TCL: Setting parameter langevinTemp to 240
TCL: Running for 100000 steps
ETITLE: TS BOND ANGLE DIHED IMPRP ELECT VDW BOUNDARY MISC KINETIC TOTAL TEMP POTENTIAL TOTAL3 TEMPAVG PRESSURE GPRESSURE VOLUME PRESSAVG GPRESSAVG
ENERGY: 700000 0.0000 0.0000 0.0000 0.0000 -12346.8894 1887.6590 0.0000 0.0000 1243.0073 -9216.2231 214.5095 -10459.2304 -9214.5146 214.5095 87.9727 141.4041 28789.7338 87.9727 141.4041
ENERGY: 800000 0.0000 0.0000 0.0000 0.0000 -11772.6270 1676.5443 0.0000 0.0000 1341.3925 -8754.6902 231.4881 -10096.0827 -8751.0635 240.1021 -504.4767 -399.0064 29007.5486 3.8413 3.6175
TCL: Running 100000 steps at 270 kelvin.
TCL: Setting parameter langevinTemp to 270
TCL: Running for 100000 steps
ETITLE: TS BOND ANGLE DIHED IMPRP ELECT VDW BOUNDARY MISC KINETIC TOTAL TEMP POTENTIAL TOTAL3 TEMPAVG PRESSURE GPRESSURE VOLUME PRESSAVG GPRESSAVG
ENERGY: 800000 0.0000 0.0000 0.0000 0.0000 -11772.6270 1676.5443 0.0000 0.0000 1340.6649 -8755.4178 231.3626 -10096.0827 -8753.7730 231.3626 -491.6620 -398.2955 29007.5486 -491.6620 -398.2955
ENERGY: 900000 0.0000 0.0000 0.0000 0.0000 -11251.4494 1545.4701 0.0000 0.0000 1552.6527 -8153.3266 267.9459 -9705.9793 -8149.7997 269.4555 -211.6462 -106.7380 29180.9745 3.4860 3.4895
TCL: Running 1000000 steps at 300 kelvin.
TCL: Setting parameter langevinTemp to 300
TCL: Running for 1000000 steps
ETITLE: TS BOND ANGLE DIHED IMPRP ELECT VDW BOUNDARY MISC KINETIC TOTAL TEMP POTENTIAL TOTAL3 TEMPAVG PRESSURE GPRESSURE VOLUME PRESSAVG GPRESSAVG
ENERGY: 900000 0.0000 0.0000 0.0000 0.0000 -11251.4494 1545.4701 0.0000 0.0000 1551.8631 -8154.1161 267.8097 -9705.9793 -8152.1126 267.8097 -187.1358 -105.5263 29180.9745 -187.1358 -105.5263
ENERGY: 1100000 0.0000 0.0000 0.0000 0.0000 -10581.6323 1365.4680 0.0000 0.0000 1709.2947 -7506.8696 294.9781 -9216.1643 -7503.8776 299.5973 -268.2995 -206.8431 29994.1293 4.2920 4.3347
ENERGY: 1300000 0.0000 0.0000 0.0000 0.0000 -10622.4223 1405.2820 0.0000 0.0000 1744.8087 -7472.3317 301.1069 -9217.1403 -7468.6112 300.3259 141.1076 223.3288 29848.9276 3.5822 3.4648
ENERGY: 1500000 0.0000 0.0000 0.0000 0.0000 -10485.1064 1263.5738 0.0000 0.0000 1721.1647 -7500.3679 297.0266 -9221.5326 -7498.4604 300.0185 -1169.8169 -1066.1485 30152.4422 3.5351 3.7220
ENERGY: 1700000 0.0000 0.0000 0.0000 0.0000 -10679.2402 1410.7603 0.0000 0.0000 1757.1417 -7511.3382 303.2352 -9268.4799 -7508.0289 301.1350 -81.4239 -69.8507 30041.1119 2.6620 2.6554
ENERGY: 1900000 0.0000 0.0000 0.0000 0.0000 -10670.8036 1428.1639 0.0000 0.0000 1705.2035 -7537.4363 294.2721 -9242.6398 -7535.4771 300.1782 185.5959 319.9450 29820.5988 2.9194 3.0452
TCL: Exiting due to exit command.
