Info: SIMULATION PARAMETERS:
Info: TIMESTEP               2
Info: NUMBER OF STEPS        0
Info: STEPS PER CYCLE        10
Info: PERIODIC CELL BASIS 1  36.592 0 0
Info: PERIODIC CELL BASIS 2  0 35.411 0
Info: PERIODIC CELL BASIS 3  0 0 34.68
Info: PERIODIC CELL CENTER   0 0 0
Info: WRAPPING WATERS AROUND PERIODIC BOUNDARIES ON OUTPUT.
Info: WRAPPING ALL CLUSTERS AROUND PERIODIC BOUNDARIES ON OUTPUT.
Info: FIRST LDB TIMESTEP     50
Info: LAST LDB TIMESTEP     -1
Info: HOM BACKGROUND SCALING 1
Info: PME BACKGROUND SCALING 1
Info: MIN ATOMS PER PATCH    40
Info: EMPTY PATCH LOAD       40 ATOMS
Info: INITIAL TEMPERATURE    300
Info: CENTER OF MASS MOVING INITIALLY? NO
Info: DIELECTRIC             1
Info: EXCLUDE                SCALED ONE-FOUR
Info: 1-4 ELECTROSTATICS SCALED BY 0.833333
Info: MODIFIED 1-4 VDW PARAMETERS WILL BE USED
Info: DCD FILENAME           mobley_468867_equil.dcd
Info: DCD FREQUENCY          100000
Info: DCD FIRST STEP         100000
Info: DCD FILE WILL CONTAIN UNIT CELL DATA
Info: XST FILENAME           mobley_468867_equil.xst
Info: XST FREQUENCY          100000
Info: NO VELOCITY DCD OUTPUT
Info: NO FORCE DCD OUTPUT
Info: OUTPUT FILENAME        mobley_468867_equil
Info: BINARY OUTPUT FILES WILL BE USED
Info: RESTART FILENAME       mobley_468867_equil.restart
Info: RESTART FREQUENCY      100000
Info: BINARY RESTART FILES WILL BE USED
Info: CUTOFF                 9
Info: PAIRLIST DISTANCE      11
Info: PAIRLIST SHRINK RATE   0.01
Info: PAIRLIST GROW RATE     0.01
Info: PAIRLIST TRIGGER       0.3
Info: PAIRLISTS PER CYCLE    2
Info: PAIRLISTS ENABLED
Info: MARGIN                 8
Info: HYDROGEN GROUP CUTOFF  2.5
Info: PATCH DIMENSION        21.5
Info: ENERGY OUTPUT STEPS    100000
Info: ENERGY EVALUATION STEPS    100000
Info: OUTPUT ENERGY PRECISION 4
Info: CROSSTERM ENERGY INCLUDED IN DIHEDRAL
Info: TIMING OUTPUT STEPS    1000000
Info: PRESSURE OUTPUT STEPS  100000
Info: FIXED ATOMS ACTIVE
Info: LANGEVIN DYNAMICS ACTIVE
Info: LANGEVIN TEMPERATURE   30
Info: LANGEVIN USING BBK INTEGRATOR
Info: LANGEVIN DAMPING COEFFICIENT IS 1 INVERSE PS
Info: LANGEVIN DYNAMICS APPLIED TO HYDROGENS
Info: LANGEVIN PISTON PRESSURE CONTROL ACTIVE
Info:        TARGET PRESSURE IS 1.01325 BAR
Info:     OSCILLATION PERIOD IS 50 FS
Info:             DECAY TIME IS 25 FS
Info:     PISTON TEMPERATURE IS 300 K
Info:       PRESSURE CONTROL IS GROUP-BASED
Info:    INITIAL STRAIN RATE IS 0 0 0
Info:       CELL FLUCTUATION IS ISOTROPIC
Info: PARTICLE MESH EWALD (PME) ACTIVE
Info: PME TOLERANCE               1e-06
Info: PME EWALD COEFFICIENT       0.348832
Info: PME INTERPOLATION ORDER     4
Info: PME GRID DIMENSIONS         40 36 36
Info: PME MAXIMUM GRID SPACING    1
Info: FULL ELECTROSTATIC EVALUATION FREQUENCY      2
Info: USING VERLET I (r-RESPA) MTS SCHEME.
Info: C1 SPLITTING OF LONG RANGE ELECTROSTATICS
Info: PLACING ATOMS IN PATCHES BY HYDROGEN GROUPS
Info: RIGID BONDS TO HYDROGEN : ALL
Info:         ERROR TOLERANCE : 1e-08
Info:          MAX ITERATIONS : 100
Info: RIGID WATER USING SETTLE ALGORITHM
Info: RANDOM NUMBER SEED     1743764668
Info: USE HYDROGEN BONDS?    NO
Info: Using AMBER format force field!
Info: AMBER PARM FILE        mobley_468867.prmtop
Info: COORDINATE PDB         mobley_468867.pdb
Info: Exclusions will be read from PARM file!
Info: SCNB (VDW SCALING)     2
Info: USING ARITHMETIC MEAN TO COMBINE L-J SIGMA PARAMETERS
Info: BINARY COORDINATES     mobley_468867_min.coor
Info: SUMMARY OF PARAMETERS:
Info: 10 BONDS
Info: 15 ANGLES
Info:   15 HARMONIC
Info:   0 COSINE-BASED
Info: 15 DIHEDRAL
Info: 0 IMPROPER
Info: 0 CROSSTERM
Info: 0 VDW
Info: 36 VDW_PAIRS
Info: 0 NBTHOLE_PAIRS
Info: STRUCTURE SUMMARY:
Info: 2953 ATOMS
Info: 2955 BONDS
Info: 48 ANGLES
Info: 115 DIHEDRALS
Info: 0 IMPROPERS
Info: 0 CROSSTERMS
Info: 3072 EXCLUSIONS
Info: 22 FIXED ATOMS
Info: 2936 RIGID BONDS
Info: 5 RIGID BONDS BETWEEN FIXED ATOMS
Info: 5862 DEGREES OF FREEDOM
Info: 994 HYDROGEN GROUPS
Info: 3 ATOMS IN LARGEST HYDROGEN GROUP
Info: 994 MIGRATION GROUPS
Info: 3 ATOMS IN LARGEST MIGRATION GROUP
Info: 17 HYDROGEN GROUPS WITH ALL ATOMS FIXED
Info: TOTAL MASS = 17974.9 amu
Info: TOTAL CHARGE = 9.99968e-05 e
Info: MASS DENSITY = 0.664237 g/cm^3
Info: ATOM DENSITY = 0.0657143 atoms/A^3
Info: ADDED 0 IMPLICIT EXCLUSIONS
Info: NONBONDED TABLE R-SQUARED SPACING: 0.0625
Info: NONBONDED TABLE SIZE: 705 POINTS
Info: REMOVING COM VELOCITY -0.180043 0.0558784 -0.00336792
TCL: Running for 100000 steps
ETITLE: TS BOND ANGLE DIHED IMPRP ELECT VDW BOUNDARY MISC KINETIC TOTAL TEMP POTENTIAL TOTAL3 TEMPAVG PRESSURE GPRESSURE VOLUME PRESSAVG GPRESSAVG
ENERGY: 0 0.0000 0.0000 0.0000 0.0000 -13589.0662 2386.9484 0.0000 0.0000 1744.4458 -9457.6720 299.5036 -11202.1178 -9457.3493 299.5036 387.1358 417.2755 44936.9329 387.1358 417.2755
ENERGY: 100000 0.0000 0.0000 0.0000 0.0000 -14141.0791 2432.0149 0.0000 0.0000 174.4029 -11534.6613 29.9432 -11709.0642 -11534.1521 30.9269 -537.5631 -476.2938 29894.0946 3.1940 3.1840
TCL: Running 100000 steps at 60 kelvin.
TCL: Setting parameter langevinTemp to 60
TCL: Running for 100000 steps
ETITLE: TS BOND ANGLE DIHED IMPRP ELECT VDW BOUNDARY MISC KINETIC TOTAL TEMP POTENTIAL TOTAL3 TEMPAVG PRESSURE GPRESSURE VOLUME PRESSAVG GPRESSAVG
ENERGY: 100000 0.0000 0.0000 0.0000 0.0000 -14141.0791 2432.0149 0.0000 0.0000 174.3182 -11534.7461 29.9287 -11709.0642 -11534.3534 29.9287 -544.8422 -476.2579 29894.0946 -544.8422 -476.2579
ENERGY: 200000 0.0000 0.0000 0.0000 0.0000 -14083.7336 2433.8086 0.0000 0.0000 352.0702 -11297.8547 60.4469 -11649.9250 -11297.0846 59.9875 16.1217 47.9115 29096.4456 5.0711 5.0056
TCL: Running 100000 steps at 90 kelvin.
TCL: Setting parameter langevinTemp to 90
TCL: Running for 100000 steps
ETITLE: TS BOND ANGLE DIHED IMPRP ELECT VDW BOUNDARY MISC KINETIC TOTAL TEMP POTENTIAL TOTAL3 TEMPAVG PRESSURE GPRESSURE VOLUME PRESSAVG GPRESSAVG
ENERGY: 200000 0.0000 0.0000 0.0000 0.0000 -14083.7336 2433.8086 0.0000 0.0000 351.8934 -11298.0316 60.4165 -11649.9250 -11297.2866 60.4165 -4.1885 48.2205 29096.4456 -4.1885 48.2205
ENERGY: 300000 0.0000 0.0000 0.0000 0.0000 -13983.7788 2437.6096 0.0000 0.0000 518.4140 -11027.7551 89.0064 -11546.1691 -11026.5737 90.0735 350.5150 414.7545 29266.8954 4.7476 4.7213
TCL: Running 100000 steps at 120 kelvin.
TCL: Setting parameter langevinTemp to 120
TCL: Running for 100000 steps
ETITLE: TS BOND ANGLE DIHED IMPRP ELECT VDW BOUNDARY MISC KINETIC TOTAL TEMP POTENTIAL TOTAL3 TEMPAVG PRESSURE GPRESSURE VOLUME PRESSAVG GPRESSAVG
ENERGY: 300000 0.0000 0.0000 0.0000 0.0000 -13983.7788 2437.6096 0.0000 0.0000 518.1436 -11028.0255 88.9600 -11546.1691 -11026.8878 88.9600 366.8478 414.4461 29266.8954 366.8478 414.4461
ENERGY: 400000 0.0000 0.0000 0.0000 0.0000 -13659.4630 2204.9515 0.0000 0.0000 693.1941 -10761.3174 119.0144 -11454.5115 -10759.8842 120.4139 -916.5058 -870.3508 28956.8823 3.7410 3.7725
TCL: Running 100000 steps at 150 kelvin.
TCL: Setting parameter langevinTemp to 150
TCL: Running for 100000 steps
ETITLE: TS BOND ANGLE DIHED IMPRP ELECT VDW BOUNDARY MISC KINETIC TOTAL TEMP POTENTIAL TOTAL3 TEMPAVG PRESSURE GPRESSURE VOLUME PRESSAVG GPRESSAVG
ENERGY: 400000 0.0000 0.0000 0.0000 0.0000 -13659.4630 2204.9515 0.0000 0.0000 692.8545 -10761.6570 118.9561 -11454.5115 -10760.1678 118.9561 -927.5419 -870.7054 28956.8823 -927.5419 -870.7054
ENERGY: 500000 0.0000 0.0000 0.0000 0.0000 -13470.7183 2228.0665 0.0000 0.0000 890.1887 -10352.4632 152.8364 -11242.6519 -10350.8218 150.0767 1.4429 72.0592 28950.1383 5.3703 5.3732
TCL: Running 100000 steps at 180 kelvin.
TCL: Setting parameter langevinTemp to 180
TCL: Running for 100000 steps
ETITLE: TS BOND ANGLE DIHED IMPRP ELECT VDW BOUNDARY MISC KINETIC TOTAL TEMP POTENTIAL TOTAL3 TEMPAVG PRESSURE GPRESSURE VOLUME PRESSAVG GPRESSAVG
ENERGY: 500000 0.0000 0.0000 0.0000 0.0000 -13470.7183 2228.0665 0.0000 0.0000 889.7653 -10352.8866 152.7636 -11242.6519 -10351.2934 152.7636 14.0004 72.8216 28950.1383 14.0004 72.8216
ENERGY: 600000 0.0000 0.0000 0.0000 0.0000 -13070.7724 2074.7347 0.0000 0.0000 1030.2741 -9965.7636 176.8876 -10996.0377 -9963.6750 179.9804 -338.2464 -276.1012 29187.3648 3.5842 3.5927
TCL: Running 100000 steps at 210 kelvin.
TCL: Setting parameter langevinTemp to 210
TCL: Running for 100000 steps
ETITLE: TS BOND ANGLE DIHED IMPRP ELECT VDW BOUNDARY MISC KINETIC TOTAL TEMP POTENTIAL TOTAL3 TEMPAVG PRESSURE GPRESSURE VOLUME PRESSAVG GPRESSAVG
ENERGY: 600000 0.0000 0.0000 0.0000 0.0000 -13070.7724 2074.7347 0.0000 0.0000 1029.7586 -9966.2791 176.7991 -10996.0377 -9963.9532 176.7991 -361.6250 -276.0792 29187.3648 -361.6250 -276.0792
ENERGY: 700000 0.0000 0.0000 0.0000 0.0000 -12330.4321 1871.6339 0.0000 0.0000 1235.9843 -9222.8139 212.2059 -10458.7982 -9220.0657 210.0855 166.7182 180.2568 28785.8731 3.8900 3.9496
TCL: Running 100000 steps at 240 kelvin.
TCL: Setting parameter langevinTemp to 240
TCL: Running for 100000 steps
ETITLE: TS BOND ANGLE DIHED IMPRP ELECT VDW BOUNDARY MISC KINETIC TOTAL TEMP POTENTIAL TOTAL3 TEMPAVG PRESSURE GPRESSURE VOLUME PRESSAVG GPRESSAVG
ENERGY: 700000 0.0000 0.0000 0.0000 0.0000 -12330.4321 1871.6339 0.0000 0.0000 1235.3895 -9223.4087 212.1038 -10458.7982 -9220.8320 212.1038 95.2048 181.2300 28785.8731 95.2048 181.2300
ENERGY: 800000 0.0000 0.0000 0.0000 0.0000 -11630.0659 1611.7880 0.0000 0.0000 1407.8040 -8610.4740 241.7056 -10018.2780 -8608.5520 239.9937 -672.1742 -563.7347 29542.1025 3.3330 3.4140
TCL: Running 100000 steps at 270 kelvin.
TCL: Setting parameter langevinTemp to 270
TCL: Running for 100000 steps
ETITLE: TS BOND ANGLE DIHED IMPRP ELECT VDW BOUNDARY MISC KINETIC TOTAL TEMP POTENTIAL TOTAL3 TEMPAVG PRESSURE GPRESSURE VOLUME PRESSAVG GPRESSAVG
ENERGY: 800000 0.0000 0.0000 0.0000 0.0000 -11630.0659 1611.7880 0.0000 0.0000 1407.1221 -8611.1559 241.5886 -10018.2780 -8608.5839 241.5886 -646.4175 -564.7211 29542.1025 -646.4175 -564.7211
ENERGY: 900000 0.0000 0.0000 0.0000 0.0000 -11228.3662 1601.0945 0.0000 0.0000 1589.3149 -8037.9568 272.8692 -9627.2718 -8034.6335 270.1988 670.0363 712.4110 29643.4879 3.0914 3.2697
TCL: Running 1000000 steps at 300 kelvin.
TCL: Setting parameter langevinTemp to 300
TCL: Running for 1000000 steps
ETITLE: TS BOND ANGLE DIHED IMPRP ELECT VDW BOUNDARY MISC KINETIC TOTAL TEMP POTENTIAL TOTAL3 TEMPAVG PRESSURE GPRESSURE VOLUME PRESSAVG GPRESSAVG
ENERGY: 900000 0.0000 0.0000 0.0000 0.0000 -11228.3662 1601.0945 0.0000 0.0000 1588.5363 -8038.7355 272.7355 -9627.2718 -8036.6654 272.7355 635.2743 714.5989 29643.4879 635.2743 714.5989
ENERGY: 1100000 0.0000 0.0000 0.0000 0.0000 -10726.4186 1433.7713 0.0000 0.0000 1745.2899 -7547.3574 299.6485 -9292.6472 -7542.9766 300.7461 -140.4807 -14.2037 30782.0731 3.3779 3.2671
ENERGY: 1300000 0.0000 0.0000 0.0000 0.0000 -10624.0344 1387.4826 0.0000 0.0000 1741.0708 -7495.4810 298.9242 -9236.5519 -7490.9221 300.4242 -684.2939 -606.3475 31182.8776 3.0623 2.9337
ENERGY: 1500000 0.0000 0.0000 0.0000 0.0000 -10625.1425 1393.0171 0.0000 0.0000 1711.2251 -7520.9003 293.7999 -9232.1254 -7516.9777 300.2126 -93.1858 36.1545 30395.8059 2.3171 2.2470
ENERGY: 1700000 0.0000 0.0000 0.0000 0.0000 -10670.3560 1447.5745 0.0000 0.0000 1717.7222 -7505.0593 294.9154 -9222.7815 -7500.2159 299.7896 299.8588 344.3180 30567.4664 2.9446 2.9909
ENERGY: 1900000 0.0000 0.0000 0.0000 0.0000 -10782.8611 1467.5468 0.0000 0.0000 1704.6876 -7610.6267 292.6775 -9315.3143 -7607.1195 301.2894 279.3386 361.3239 30440.2526 3.8494 3.9518
TCL: Exiting due to exit command.
