Info: SIMULATION PARAMETERS:
Info: TIMESTEP               2
Info: NUMBER OF STEPS        0
Info: STEPS PER CYCLE        10
Info: PERIODIC CELL BASIS 1  37.435 0 0
Info: PERIODIC CELL BASIS 2  0 35.411 0
Info: PERIODIC CELL BASIS 3  0 0 32.993
Info: PERIODIC CELL CENTER   0 0 0
Info: WRAPPING WATERS AROUND PERIODIC BOUNDARIES ON OUTPUT.
Info: WRAPPING ALL CLUSTERS AROUND PERIODIC BOUNDARIES ON OUTPUT.
Info: FIRST LDB TIMESTEP     50
Info: LAST LDB TIMESTEP     -1
Info: HOM BACKGROUND SCALING 1
Info: PME BACKGROUND SCALING 1
Info: MIN ATOMS PER PATCH    40
Info: EMPTY PATCH LOAD       40 ATOMS
Info: INITIAL TEMPERATURE    300
Info: CENTER OF MASS MOVING INITIALLY? NO
Info: DIELECTRIC             1
Info: EXCLUDE                SCALED ONE-FOUR
Info: 1-4 ELECTROSTATICS SCALED BY 0.833333
Info: MODIFIED 1-4 VDW PARAMETERS WILL BE USED
Info: DCD FILENAME           mobley_3234716_equil.dcd
Info: DCD FREQUENCY          100000
Info: DCD FIRST STEP         100000
Info: DCD FILE WILL CONTAIN UNIT CELL DATA
Info: XST FILENAME           mobley_3234716_equil.xst
Info: XST FREQUENCY          100000
Info: NO VELOCITY DCD OUTPUT
Info: NO FORCE DCD OUTPUT
Info: OUTPUT FILENAME        mobley_3234716_equil
Info: BINARY OUTPUT FILES WILL BE USED
Info: RESTART FILENAME       mobley_3234716_equil.restart
Info: RESTART FREQUENCY      100000
Info: BINARY RESTART FILES WILL BE USED
Info: CUTOFF                 9
Info: PAIRLIST DISTANCE      11
Info: PAIRLIST SHRINK RATE   0.01
Info: PAIRLIST GROW RATE     0.01
Info: PAIRLIST TRIGGER       0.3
Info: PAIRLISTS PER CYCLE    2
Info: PAIRLISTS ENABLED
Info: MARGIN                 8
Info: HYDROGEN GROUP CUTOFF  2.5
Info: PATCH DIMENSION        21.5
Info: ENERGY OUTPUT STEPS    100000
Info: ENERGY EVALUATION STEPS    100000
Info: OUTPUT ENERGY PRECISION 4
Info: CROSSTERM ENERGY INCLUDED IN DIHEDRAL
Info: TIMING OUTPUT STEPS    1000000
Info: PRESSURE OUTPUT STEPS  100000
Info: FIXED ATOMS ACTIVE
Info: LANGEVIN DYNAMICS ACTIVE
Info: LANGEVIN TEMPERATURE   30
Info: LANGEVIN USING BBK INTEGRATOR
Info: LANGEVIN DAMPING COEFFICIENT IS 1 INVERSE PS
Info: LANGEVIN DYNAMICS APPLIED TO HYDROGENS
Info: LANGEVIN PISTON PRESSURE CONTROL ACTIVE
Info:        TARGET PRESSURE IS 1.01325 BAR
Info:     OSCILLATION PERIOD IS 50 FS
Info:             DECAY TIME IS 25 FS
Info:     PISTON TEMPERATURE IS 300 K
Info:       PRESSURE CONTROL IS GROUP-BASED
Info:    INITIAL STRAIN RATE IS 0 0 0
Info:       CELL FLUCTUATION IS ISOTROPIC
Info: PARTICLE MESH EWALD (PME) ACTIVE
Info: PME TOLERANCE               1e-06
Info: PME EWALD COEFFICIENT       0.348832
Info: PME INTERPOLATION ORDER     4
Info: PME GRID DIMENSIONS         40 36 36
Info: PME MAXIMUM GRID SPACING    1
Info: FULL ELECTROSTATIC EVALUATION FREQUENCY      2
Info: USING VERLET I (r-RESPA) MTS SCHEME.
Info: C1 SPLITTING OF LONG RANGE ELECTROSTATICS
Info: PLACING ATOMS IN PATCHES BY HYDROGEN GROUPS
Info: RIGID BONDS TO HYDROGEN : ALL
Info:         ERROR TOLERANCE : 1e-08
Info:          MAX ITERATIONS : 100
Info: RIGID WATER USING SETTLE ALGORITHM
Info: RANDOM NUMBER SEED     1743740490
Info: USE HYDROGEN BONDS?    NO
Info: Using AMBER format force field!
Info: AMBER PARM FILE        mobley_3234716.prmtop
Info: COORDINATE PDB         mobley_3234716.pdb
Info: Exclusions will be read from PARM file!
Info: SCNB (VDW SCALING)     2
Info: USING ARITHMETIC MEAN TO COMBINE L-J SIGMA PARAMETERS
Info: BINARY COORDINATES     mobley_3234716_min.coor
Info: SUMMARY OF PARAMETERS:
Info: 6 BONDS
Info: 5 ANGLES
Info:   5 HARMONIC
Info:   0 COSINE-BASED
Info: 3 DIHEDRAL
Info: 0 IMPROPER
Info: 0 CROSSTERM
Info: 0 VDW
Info: 21 VDW_PAIRS
Info: 0 NBTHOLE_PAIRS
Info: STRUCTURE SUMMARY:
Info: 2928 ATOMS
Info: 2928 BONDS
Info: 30 ANGLES
Info: 42 DIHEDRALS
Info: 0 IMPROPERS
Info: 0 CROSSTERMS
Info: 2991 EXCLUSIONS
Info: 18 FIXED ATOMS
Info: 2920 RIGID BONDS
Info: 10 RIGID BONDS BETWEEN FIXED ATOMS
Info: 5820 DEGREES OF FREEDOM
Info: 978 HYDROGEN GROUPS
Info: 4 ATOMS IN LARGEST HYDROGEN GROUP
Info: 978 MIGRATION GROUPS
Info: 4 ATOMS IN LARGEST MIGRATION GROUP
Info: 8 HYDROGEN GROUPS WITH ALL ATOMS FIXED
Info: TOTAL MASS = 17581.7 amu
Info: TOTAL CHARGE = 0.000100061 e
Info: MASS DENSITY = 0.667547 g/cm^3
Info: ATOM DENSITY = 0.0669473 atoms/A^3
Info: ADDED 0 IMPLICIT EXCLUSIONS
Info: NONBONDED TABLE R-SQUARED SPACING: 0.0625
Info: NONBONDED TABLE SIZE: 705 POINTS
Info: REMOVING COM VELOCITY -0.0529116 -0.15177 -0.0469483
TCL: Running for 100000 steps
ETITLE: TS BOND ANGLE DIHED IMPRP ELECT VDW BOUNDARY MISC KINETIC TOTAL TEMP POTENTIAL TOTAL3 TEMPAVG PRESSURE GPRESSURE VOLUME PRESSAVG GPRESSAVG
ENERGY: 0 0.0000 0.0000 0.0000 0.0000 -13488.5877 2370.2243 0.0000 0.0000 1743.6774 -9374.6860 301.5321 -11118.3634 -9374.3263 301.5321 372.3036 402.8114 43735.8766 372.3036 402.8114
ENERGY: 100000 0.0000 0.0000 0.0000 0.0000 -14138.5473 2471.0808 0.0000 0.0000 170.5979 -11496.8686 29.5013 -11667.4664 -11496.3281 30.9601 -125.0800 -49.5223 28923.5662 3.8633 3.8156
TCL: Running 100000 steps at 60 kelvin.
TCL: Setting parameter langevinTemp to 60
TCL: Running for 100000 steps
ETITLE: TS BOND ANGLE DIHED IMPRP ELECT VDW BOUNDARY MISC KINETIC TOTAL TEMP POTENTIAL TOTAL3 TEMPAVG PRESSURE GPRESSURE VOLUME PRESSAVG GPRESSAVG
ENERGY: 100000 0.0000 0.0000 0.0000 0.0000 -14138.5473 2471.0808 0.0000 0.0000 170.5087 -11496.9577 29.4859 -11667.4664 -11496.6094 29.4859 -117.0204 -49.4489 28923.5662 -117.0204 -49.4489
ENERGY: 200000 0.0000 0.0000 0.0000 0.0000 -14102.7028 2539.0520 0.0000 0.0000 346.3171 -11217.3337 59.8882 -11563.6508 -11215.9556 59.8658 706.1046 763.1573 28995.6063 4.6000 4.5847
TCL: Running 100000 steps at 90 kelvin.
TCL: Setting parameter langevinTemp to 90
TCL: Running for 100000 steps
ETITLE: TS BOND ANGLE DIHED IMPRP ELECT VDW BOUNDARY MISC KINETIC TOTAL TEMP POTENTIAL TOTAL3 TEMPAVG PRESSURE GPRESSURE VOLUME PRESSAVG GPRESSAVG
ENERGY: 200000 0.0000 0.0000 0.0000 0.0000 -14102.7028 2539.0520 0.0000 0.0000 346.1452 -11217.5056 59.8585 -11563.6508 -11216.8142 59.8585 704.6331 763.9330 28995.6063 704.6331 763.9330
ENERGY: 300000 0.0000 0.0000 0.0000 0.0000 -13913.6982 2464.9142 0.0000 0.0000 539.5123 -10909.2717 93.2972 -11448.7840 -10907.8246 89.8405 818.8741 880.7715 28730.5619 5.0850 5.0670
TCL: Running 100000 steps at 120 kelvin.
TCL: Setting parameter langevinTemp to 120
TCL: Running for 100000 steps
ETITLE: TS BOND ANGLE DIHED IMPRP ELECT VDW BOUNDARY MISC KINETIC TOTAL TEMP POTENTIAL TOTAL3 TEMPAVG PRESSURE GPRESSURE VOLUME PRESSAVG GPRESSAVG
ENERGY: 300000 0.0000 0.0000 0.0000 0.0000 -13913.6982 2464.9142 0.0000 0.0000 539.2475 -10909.5366 93.2514 -11448.7840 -10908.3889 93.2514 830.2437 881.0761 28730.5619 830.2437 881.0761
ENERGY: 400000 0.0000 0.0000 0.0000 0.0000 -13658.1206 2310.1443 0.0000 0.0000 680.2436 -10667.7327 117.6337 -11347.9763 -10665.3497 119.9589 -170.3185 -133.1233 28884.3392 3.6402 3.6394
TCL: Running 100000 steps at 150 kelvin.
TCL: Setting parameter langevinTemp to 150
TCL: Running for 100000 steps
ETITLE: TS BOND ANGLE DIHED IMPRP ELECT VDW BOUNDARY MISC KINETIC TOTAL TEMP POTENTIAL TOTAL3 TEMPAVG PRESSURE GPRESSURE VOLUME PRESSAVG GPRESSAVG
ENERGY: 400000 0.0000 0.0000 0.0000 0.0000 -13658.1206 2310.1443 0.0000 0.0000 679.9080 -10668.0683 117.5757 -11347.9763 -10666.6413 117.5757 -178.2319 -131.7273 28884.3392 -178.2319 -131.7273
ENERGY: 500000 0.0000 0.0000 0.0000 0.0000 -13497.0681 2281.9949 0.0000 0.0000 847.7873 -10367.2860 146.6069 -11215.0732 -10364.2625 149.8652 -63.1710 49.1851 29064.3043 3.5044 3.4070
TCL: Running 100000 steps at 180 kelvin.
TCL: Setting parameter langevinTemp to 180
TCL: Running for 100000 steps
ETITLE: TS BOND ANGLE DIHED IMPRP ELECT VDW BOUNDARY MISC KINETIC TOTAL TEMP POTENTIAL TOTAL3 TEMPAVG PRESSURE GPRESSURE VOLUME PRESSAVG GPRESSAVG
ENERGY: 500000 0.0000 0.0000 0.0000 0.0000 -13497.0681 2281.9949 0.0000 0.0000 847.3375 -10367.7358 146.5291 -11215.0732 -10366.2276 146.5291 -0.5850 50.2017 29064.3043 -0.5850 50.2017
ENERGY: 600000 0.0000 0.0000 0.0000 0.0000 -13016.0454 2118.1870 0.0000 0.0000 1034.6511 -9863.2074 178.9210 -10897.8584 -9861.5001 180.1137 186.2489 233.4356 28527.2292 3.0109 2.8990
TCL: Running 100000 steps at 210 kelvin.
TCL: Setting parameter langevinTemp to 210
TCL: Running for 100000 steps
ETITLE: TS BOND ANGLE DIHED IMPRP ELECT VDW BOUNDARY MISC KINETIC TOTAL TEMP POTENTIAL TOTAL3 TEMPAVG PRESSURE GPRESSURE VOLUME PRESSAVG GPRESSAVG
ENERGY: 600000 0.0000 0.0000 0.0000 0.0000 -13016.0454 2118.1870 0.0000 0.0000 1034.1157 -9863.7427 178.8284 -10897.8584 -9861.8385 178.8284 189.0176 232.3899 28527.2292 189.0176 232.3899
ENERGY: 700000 0.0000 0.0000 0.0000 0.0000 -12197.0958 1790.6865 0.0000 0.0000 1231.5834 -9174.8259 212.9763 -10406.4094 -9170.1044 209.8489 -580.1098 -602.0141 28700.6717 3.3358 3.3155
TCL: Running 100000 steps at 240 kelvin.
TCL: Setting parameter langevinTemp to 240
TCL: Running for 100000 steps
ETITLE: TS BOND ANGLE DIHED IMPRP ELECT VDW BOUNDARY MISC KINETIC TOTAL TEMP POTENTIAL TOTAL3 TEMPAVG PRESSURE GPRESSURE VOLUME PRESSAVG GPRESSAVG
ENERGY: 700000 0.0000 0.0000 0.0000 0.0000 -12197.0958 1790.6865 0.0000 0.0000 1230.9896 -9175.4198 212.8736 -10406.4094 -9173.4346 212.8736 -664.9711 -599.0758 28700.6717 -664.9711 -599.0758
ENERGY: 800000 0.0000 0.0000 0.0000 0.0000 -11675.2255 1723.6400 0.0000 0.0000 1388.2854 -8563.3001 240.0746 -9951.5855 -8560.0905 239.6604 303.4207 353.3410 29049.3937 4.5135 4.5500
TCL: Running 100000 steps at 270 kelvin.
TCL: Setting parameter langevinTemp to 270
TCL: Running for 100000 steps
ETITLE: TS BOND ANGLE DIHED IMPRP ELECT VDW BOUNDARY MISC KINETIC TOTAL TEMP POTENTIAL TOTAL3 TEMPAVG PRESSURE GPRESSURE VOLUME PRESSAVG GPRESSAVG
ENERGY: 800000 0.0000 0.0000 0.0000 0.0000 -11675.2255 1723.6400 0.0000 0.0000 1387.5876 -8563.9979 239.9539 -9951.5855 -8561.9780 239.9539 272.8816 353.7164 29049.3937 272.8816 353.7164
ENERGY: 900000 0.0000 0.0000 0.0000 0.0000 -11163.8709 1562.1212 0.0000 0.0000 1537.2632 -8064.4865 265.8371 -9601.7497 -8061.9398 269.5205 452.6810 509.4897 28742.8508 3.4452 3.2944
TCL: Running 1000000 steps at 300 kelvin.
TCL: Setting parameter langevinTemp to 300
TCL: Running for 1000000 steps
ETITLE: TS BOND ANGLE DIHED IMPRP ELECT VDW BOUNDARY MISC KINETIC TOTAL TEMP POTENTIAL TOTAL3 TEMPAVG PRESSURE GPRESSURE VOLUME PRESSAVG GPRESSAVG
ENERGY: 900000 0.0000 0.0000 0.0000 0.0000 -11163.8709 1562.1212 0.0000 0.0000 1536.4842 -8065.2655 265.7024 -9601.7497 -8062.2273 265.7024 437.8677 508.4884 28742.8508 437.8677 508.4884
ENERGY: 1100000 0.0000 0.0000 0.0000 0.0000 -10568.2632 1369.1339 0.0000 0.0000 1798.7015 -7400.4278 311.0474 -9199.1293 -7396.1536 299.9317 -612.5386 -512.7044 30497.8057 3.7426 3.7154
ENERGY: 1300000 0.0000 0.0000 0.0000 0.0000 -10601.7343 1419.7644 0.0000 0.0000 1820.6594 -7361.3105 314.8445 -9181.9699 -7358.7579 300.4155 -113.5062 -6.3133 30571.1106 2.0116 2.1199
ENERGY: 1500000 0.0000 0.0000 0.0000 0.0000 -10555.5189 1466.0025 0.0000 0.0000 1762.5386 -7326.9778 304.7937 -9089.5164 -7326.2374 300.3497 600.2445 642.5746 30353.5795 3.3320 3.2772
ENERGY: 1700000 0.0000 0.0000 0.0000 0.0000 -10625.1029 1458.7903 0.0000 0.0000 1711.1171 -7455.1956 295.9015 -9166.3126 -7450.5516 299.8799 40.8281 127.3238 30514.7545 1.6081 1.6994
ENERGY: 1900000 0.0000 0.0000 0.0000 0.0000 -10590.4436 1411.6647 0.0000 0.0000 1716.3001 -7462.4788 296.7978 -9178.7789 -7461.3634 299.6604 -156.0440 -43.8641 30239.7083 3.4323 3.2963
TCL: Exiting due to exit command.
