Info: SIMULATION PARAMETERS:
Info: TIMESTEP               2
Info: NUMBER OF STEPS        0
Info: STEPS PER CYCLE        10
Info: PERIODIC CELL BASIS 1  37.435 0 0
Info: PERIODIC CELL BASIS 2  0 35.779 0
Info: PERIODIC CELL BASIS 3  0 0 31.855
Info: PERIODIC CELL CENTER   0 0 0
Info: WRAPPING WATERS AROUND PERIODIC BOUNDARIES ON OUTPUT.
Info: WRAPPING ALL CLUSTERS AROUND PERIODIC BOUNDARIES ON OUTPUT.
Info: FIRST LDB TIMESTEP     50
Info: LAST LDB TIMESTEP     -1
Info: HOM BACKGROUND SCALING 1
Info: PME BACKGROUND SCALING 1
Info: MIN ATOMS PER PATCH    40
Info: EMPTY PATCH LOAD       40 ATOMS
Info: INITIAL TEMPERATURE    300
Info: CENTER OF MASS MOVING INITIALLY? NO
Info: DIELECTRIC             1
Info: EXCLUDE                SCALED ONE-FOUR
Info: 1-4 ELECTROSTATICS SCALED BY 0.833333
Info: MODIFIED 1-4 VDW PARAMETERS WILL BE USED
Info: DCD FILENAME           mobley_3515580_equil.dcd
Info: DCD FREQUENCY          100000
Info: DCD FIRST STEP         100000
Info: DCD FILE WILL CONTAIN UNIT CELL DATA
Info: XST FILENAME           mobley_3515580_equil.xst
Info: XST FREQUENCY          100000
Info: NO VELOCITY DCD OUTPUT
Info: NO FORCE DCD OUTPUT
Info: OUTPUT FILENAME        mobley_3515580_equil
Info: BINARY OUTPUT FILES WILL BE USED
Info: RESTART FILENAME       mobley_3515580_equil.restart
Info: RESTART FREQUENCY      100000
Info: BINARY RESTART FILES WILL BE USED
Info: CUTOFF                 9
Info: PAIRLIST DISTANCE      11
Info: PAIRLIST SHRINK RATE   0.01
Info: PAIRLIST GROW RATE     0.01
Info: PAIRLIST TRIGGER       0.3
Info: PAIRLISTS PER CYCLE    2
Info: PAIRLISTS ENABLED
Info: MARGIN                 8
Info: HYDROGEN GROUP CUTOFF  2.5
Info: PATCH DIMENSION        21.5
Info: ENERGY OUTPUT STEPS    100000
Info: ENERGY EVALUATION STEPS    100000
Info: OUTPUT ENERGY PRECISION 4
Info: CROSSTERM ENERGY INCLUDED IN DIHEDRAL
Info: TIMING OUTPUT STEPS    1000000
Info: PRESSURE OUTPUT STEPS  100000
Info: FIXED ATOMS ACTIVE
Info: LANGEVIN DYNAMICS ACTIVE
Info: LANGEVIN TEMPERATURE   30
Info: LANGEVIN USING BBK INTEGRATOR
Info: LANGEVIN DAMPING COEFFICIENT IS 1 INVERSE PS
Info: LANGEVIN DYNAMICS APPLIED TO HYDROGENS
Info: LANGEVIN PISTON PRESSURE CONTROL ACTIVE
Info:        TARGET PRESSURE IS 1.01325 BAR
Info:     OSCILLATION PERIOD IS 50 FS
Info:             DECAY TIME IS 25 FS
Info:     PISTON TEMPERATURE IS 300 K
Info:       PRESSURE CONTROL IS GROUP-BASED
Info:    INITIAL STRAIN RATE IS 0 0 0
Info:       CELL FLUCTUATION IS ISOTROPIC
Info: PARTICLE MESH EWALD (PME) ACTIVE
Info: PME TOLERANCE               1e-06
Info: PME EWALD COEFFICIENT       0.348832
Info: PME INTERPOLATION ORDER     4
Info: PME GRID DIMENSIONS         40 36 32
Info: PME MAXIMUM GRID SPACING    1
Info: FULL ELECTROSTATIC EVALUATION FREQUENCY      2
Info: USING VERLET I (r-RESPA) MTS SCHEME.
Info: C1 SPLITTING OF LONG RANGE ELECTROSTATICS
Info: PLACING ATOMS IN PATCHES BY HYDROGEN GROUPS
Info: RIGID BONDS TO HYDROGEN : ALL
Info:         ERROR TOLERANCE : 1e-08
Info:          MAX ITERATIONS : 100
Info: RIGID WATER USING SETTLE ALGORITHM
Info: RANDOM NUMBER SEED     1744086331
Info: USE HYDROGEN BONDS?    NO
Info: Using AMBER format force field!
Info: AMBER PARM FILE        mobley_3515580.prmtop
Info: COORDINATE PDB         mobley_3515580.pdb
Info: Exclusions will be read from PARM file!
Info: SCNB (VDW SCALING)     2
Info: USING ARITHMETIC MEAN TO COMBINE L-J SIGMA PARAMETERS
Info: BINARY COORDINATES     mobley_3515580_min.coor
Info: SUMMARY OF PARAMETERS:
Info: 9 BONDS
Info: 8 ANGLES
Info:   8 HARMONIC
Info:   0 COSINE-BASED
Info: 4 DIHEDRAL
Info: 0 IMPROPER
Info: 0 CROSSTERM
Info: 0 VDW
Info: 36 VDW_PAIRS
Info: 0 NBTHOLE_PAIRS
Info: STRUCTURE SUMMARY:
Info: 2957 ATOMS
Info: 2957 BONDS
Info: 26 ANGLES
Info: 37 DIHEDRALS
Info: 0 IMPROPERS
Info: 0 CROSSTERMS
Info: 3011 EXCLUSIONS
Info: 17 FIXED ATOMS
Info: 2948 RIGID BONDS
Info: 8 RIGID BONDS BETWEEN FIXED ATOMS
Info: 5880 DEGREES OF FREEDOM
Info: 989 HYDROGEN GROUPS
Info: 4 ATOMS IN LARGEST HYDROGEN GROUP
Info: 989 MIGRATION GROUPS
Info: 4 ATOMS IN LARGEST MIGRATION GROUP
Info: 9 HYDROGEN GROUPS WITH ALL ATOMS FIXED
Info: TOTAL MASS = 17779.8 amu
Info: TOTAL CHARGE = -0.000199955 e
Info: MASS DENSITY = 0.691995 g/cm^3
Info: ATOM DENSITY = 0.0693055 atoms/A^3
Info: ADDED 0 IMPLICIT EXCLUSIONS
Info: NONBONDED TABLE R-SQUARED SPACING: 0.0625
Info: NONBONDED TABLE SIZE: 705 POINTS
Info: REMOVING COM VELOCITY -0.128079 0.0929781 0.136143
TCL: Running for 100000 steps
ETITLE: TS BOND ANGLE DIHED IMPRP ELECT VDW BOUNDARY MISC KINETIC TOTAL TEMP POTENTIAL TOTAL3 TEMPAVG PRESSURE GPRESSURE VOLUME PRESSAVG GPRESSAVG
ENERGY: 0 0.0000 0.0000 0.0000 0.0000 -13767.3676 2401.9166 0.0000 0.0000 1787.7322 -9577.7189 305.9958 -11365.4511 -9577.3289 305.9958 280.4959 300.4265 42666.1686 280.4959 300.4265
ENERGY: 100000 0.0000 0.0000 0.0000 0.0000 -14244.5096 2433.0333 0.0000 0.0000 174.2277 -11637.2486 29.8216 -11811.4763 -11636.8662 30.8790 -498.6244 -432.5103 29218.5228 3.8298 3.7806
TCL: Running 100000 steps at 60 kelvin.
TCL: Setting parameter langevinTemp to 60
TCL: Running for 100000 steps
ETITLE: TS BOND ANGLE DIHED IMPRP ELECT VDW BOUNDARY MISC KINETIC TOTAL TEMP POTENTIAL TOTAL3 TEMPAVG PRESSURE GPRESSURE VOLUME PRESSAVG GPRESSAVG
ENERGY: 100000 0.0000 0.0000 0.0000 0.0000 -14244.5096 2433.0333 0.0000 0.0000 174.1375 -11637.3388 29.8061 -11811.4763 -11637.0172 29.8061 -492.3364 -432.4121 29218.5228 -492.3364 -432.4121
ENERGY: 200000 0.0000 0.0000 0.0000 0.0000 -14037.7183 2317.2563 0.0000 0.0000 360.1448 -11360.3171 61.6439 -11720.4619 -11359.1088 59.8978 -1027.7117 -978.3666 29189.4065 3.7260 3.6867
TCL: Running 100000 steps at 90 kelvin.
TCL: Setting parameter langevinTemp to 90
TCL: Running for 100000 steps
ETITLE: TS BOND ANGLE DIHED IMPRP ELECT VDW BOUNDARY MISC KINETIC TOTAL TEMP POTENTIAL TOTAL3 TEMPAVG PRESSURE GPRESSURE VOLUME PRESSAVG GPRESSAVG
ENERGY: 200000 0.0000 0.0000 0.0000 0.0000 -14037.7183 2317.2563 0.0000 0.0000 359.9682 -11360.4937 61.6137 -11720.4619 -11359.6421 61.6137 -1034.3891 -978.3964 29189.4065 -1034.3891 -978.3964
ENERGY: 300000 0.0000 0.0000 0.0000 0.0000 -13935.9432 2335.9276 0.0000 0.0000 526.7938 -11073.2219 90.1683 -11600.0156 -11072.0086 89.8658 -411.6912 -340.1497 28987.0533 3.9806 4.0910
TCL: Running 100000 steps at 120 kelvin.
TCL: Setting parameter langevinTemp to 120
TCL: Running for 100000 steps
ETITLE: TS BOND ANGLE DIHED IMPRP ELECT VDW BOUNDARY MISC KINETIC TOTAL TEMP POTENTIAL TOTAL3 TEMPAVG PRESSURE GPRESSURE VOLUME PRESSAVG GPRESSAVG
ENERGY: 300000 0.0000 0.0000 0.0000 0.0000 -13935.9432 2335.9276 0.0000 0.0000 526.5321 -11073.4835 90.1235 -11600.0156 -11072.0161 90.1235 -397.7432 -340.8088 28987.0533 -397.7432 -340.8088
ENERGY: 400000 0.0000 0.0000 0.0000 0.0000 -13896.1992 2398.6526 0.0000 0.0000 691.7037 -10805.8429 118.3949 -11497.5466 -10803.8844 120.1244 384.1381 449.4974 28978.5004 3.5857 3.6339
TCL: Running 100000 steps at 150 kelvin.
TCL: Setting parameter langevinTemp to 150
TCL: Running for 100000 steps
ETITLE: TS BOND ANGLE DIHED IMPRP ELECT VDW BOUNDARY MISC KINETIC TOTAL TEMP POTENTIAL TOTAL3 TEMPAVG PRESSURE GPRESSURE VOLUME PRESSAVG GPRESSAVG
ENERGY: 400000 0.0000 0.0000 0.0000 0.0000 -13896.1992 2398.6526 0.0000 0.0000 691.3633 -10806.1833 118.3367 -11497.5466 -10805.2107 118.3367 381.5006 450.7389 28978.5004 381.5006 450.7389
ENERGY: 500000 0.0000 0.0000 0.0000 0.0000 -13419.6637 2121.1856 0.0000 0.0000 858.0994 -10440.3788 146.8759 -11298.4781 -10438.4728 150.0302 -1037.2610 -936.6787 29171.4885 3.8440 3.7446
TCL: Running 100000 steps at 180 kelvin.
TCL: Setting parameter langevinTemp to 180
TCL: Running for 100000 steps
ETITLE: TS BOND ANGLE DIHED IMPRP ELECT VDW BOUNDARY MISC KINETIC TOTAL TEMP POTENTIAL TOTAL3 TEMPAVG PRESSURE GPRESSURE VOLUME PRESSAVG GPRESSAVG
ENERGY: 500000 0.0000 0.0000 0.0000 0.0000 -13419.6637 2121.1856 0.0000 0.0000 857.6642 -10440.8140 146.8014 -11298.4781 -10438.7901 146.8014 -1001.4358 -937.9390 29171.4885 -1001.4358 -937.9390
ENERGY: 600000 0.0000 0.0000 0.0000 0.0000 -13348.5987 2224.7708 0.0000 0.0000 1053.0540 -10070.7738 180.2452 -11123.8278 -10068.5061 179.7821 649.7167 683.8443 28896.8083 5.4415 5.3864
TCL: Running 100000 steps at 210 kelvin.
TCL: Setting parameter langevinTemp to 210
TCL: Running for 100000 steps
ETITLE: TS BOND ANGLE DIHED IMPRP ELECT VDW BOUNDARY MISC KINETIC TOTAL TEMP POTENTIAL TOTAL3 TEMPAVG PRESSURE GPRESSURE VOLUME PRESSAVG GPRESSAVG
ENERGY: 600000 0.0000 0.0000 0.0000 0.0000 -13348.5987 2224.7708 0.0000 0.0000 1052.5204 -10071.3074 180.1539 -11123.8278 -10069.0149 180.1539 622.1375 683.1526 28896.8083 622.1375 683.1526
ENERGY: 700000 0.0000 0.0000 0.0000 0.0000 -12296.3366 1770.0522 0.0000 0.0000 1214.6898 -9311.5946 207.9115 -10526.2844 -9308.7642 210.2356 -769.0921 -681.3838 28676.9408 4.2976 4.1810
TCL: Running 100000 steps at 240 kelvin.
TCL: Setting parameter langevinTemp to 240
TCL: Running for 100000 steps
ETITLE: TS BOND ANGLE DIHED IMPRP ELECT VDW BOUNDARY MISC KINETIC TOTAL TEMP POTENTIAL TOTAL3 TEMPAVG PRESSURE GPRESSURE VOLUME PRESSAVG GPRESSAVG
ENERGY: 700000 0.0000 0.0000 0.0000 0.0000 -12296.3366 1770.0522 0.0000 0.0000 1214.0578 -9312.2267 207.8033 -10526.2844 -9310.4501 207.8033 -754.7419 -679.4970 28676.9408 -754.7419 -679.4970
ENERGY: 800000 0.0000 0.0000 0.0000 0.0000 -11882.2937 1705.6804 0.0000 0.0000 1415.0174 -8761.5959 242.2004 -10176.6133 -8758.0367 240.0494 -241.8966 -125.9938 29093.3410 2.5664 2.5882
TCL: Running 100000 steps at 270 kelvin.
TCL: Setting parameter langevinTemp to 270
TCL: Running for 100000 steps
ETITLE: TS BOND ANGLE DIHED IMPRP ELECT VDW BOUNDARY MISC KINETIC TOTAL TEMP POTENTIAL TOTAL3 TEMPAVG PRESSURE GPRESSURE VOLUME PRESSAVG GPRESSAVG
ENERGY: 800000 0.0000 0.0000 0.0000 0.0000 -11882.2937 1705.6804 0.0000 0.0000 1414.3319 -8762.2814 242.0831 -10176.6133 -8760.2609 242.0831 -204.2068 -124.3403 29093.3410 -204.2068 -124.3403
ENERGY: 900000 0.0000 0.0000 0.0000 0.0000 -11345.0112 1667.0719 0.0000 0.0000 1578.3849 -8099.5544 270.1631 -9677.9393 -8094.7191 269.9106 1218.8112 1272.7545 29390.0178 2.0787 2.2001
TCL: Running 1000000 steps at 300 kelvin.
TCL: Setting parameter langevinTemp to 300
TCL: Running for 1000000 steps
ETITLE: TS BOND ANGLE DIHED IMPRP ELECT VDW BOUNDARY MISC KINETIC TOTAL TEMP POTENTIAL TOTAL3 TEMPAVG PRESSURE GPRESSURE VOLUME PRESSAVG GPRESSAVG
ENERGY: 900000 0.0000 0.0000 0.0000 0.0000 -11345.0112 1667.0719 0.0000 0.0000 1577.6144 -8100.3249 270.0312 -9677.9393 -8097.9247 270.0312 1188.1252 1274.4572 29390.0178 1188.1252 1274.4572
ENERGY: 1100000 0.0000 0.0000 0.0000 0.0000 -10584.5632 1290.5829 0.0000 0.0000 1711.7510 -7582.2294 292.9906 -9293.9804 -7579.0426 300.3499 -1186.7000 -1052.8594 30523.2965 2.6446 2.6430
ENERGY: 1300000 0.0000 0.0000 0.0000 0.0000 -10643.9147 1392.8449 0.0000 0.0000 1757.5154 -7493.5544 300.8238 -9251.0698 -7488.7642 300.7688 -264.9369 -88.8935 30539.4206 3.7587 3.8101
ENERGY: 1500000 0.0000 0.0000 0.0000 0.0000 -10712.6829 1401.7353 0.0000 0.0000 1753.7580 -7557.1896 300.1807 -9310.9476 -7553.0163 300.6182 -413.0170 -324.1758 30808.0176 2.6033 2.5778
ENERGY: 1700000 0.0000 0.0000 0.0000 0.0000 -10858.5098 1547.4843 0.0000 0.0000 1763.8487 -7547.1769 301.9078 -9311.0255 -7544.9879 299.9448 976.7527 1070.1198 30290.8788 2.1072 2.0450
ENERGY: 1900000 0.0000 0.0000 0.0000 0.0000 -10758.8467 1412.9381 0.0000 0.0000 1752.5681 -7593.3405 299.9770 -9345.9086 -7588.8573 300.1276 -145.5708 3.3188 30108.1241 3.5946 3.7330
TCL: Exiting due to exit command.
