Info: SIMULATION PARAMETERS:
Info: TIMESTEP               2
Info: NUMBER OF STEPS        0
Info: STEPS PER CYCLE        10
Info: PERIODIC CELL BASIS 1  37.133 0 0
Info: PERIODIC CELL BASIS 2  0 34.696 0
Info: PERIODIC CELL BASIS 3  0 0 34.471
Info: PERIODIC CELL CENTER   0 0 0
Info: WRAPPING WATERS AROUND PERIODIC BOUNDARIES ON OUTPUT.
Info: WRAPPING ALL CLUSTERS AROUND PERIODIC BOUNDARIES ON OUTPUT.
Info: FIRST LDB TIMESTEP     50
Info: LAST LDB TIMESTEP     -1
Info: HOM BACKGROUND SCALING 1
Info: PME BACKGROUND SCALING 1
Info: MIN ATOMS PER PATCH    40
Info: EMPTY PATCH LOAD       40 ATOMS
Info: INITIAL TEMPERATURE    300
Info: CENTER OF MASS MOVING INITIALLY? NO
Info: DIELECTRIC             1
Info: EXCLUDE                SCALED ONE-FOUR
Info: 1-4 ELECTROSTATICS SCALED BY 0.833333
Info: MODIFIED 1-4 VDW PARAMETERS WILL BE USED
Info: DCD FILENAME           mobley_1903702_equil.dcd
Info: DCD FREQUENCY          100000
Info: DCD FIRST STEP         100000
Info: DCD FILE WILL CONTAIN UNIT CELL DATA
Info: XST FILENAME           mobley_1903702_equil.xst
Info: XST FREQUENCY          100000
Info: NO VELOCITY DCD OUTPUT
Info: NO FORCE DCD OUTPUT
Info: OUTPUT FILENAME        mobley_1903702_equil
Info: BINARY OUTPUT FILES WILL BE USED
Info: RESTART FILENAME       mobley_1903702_equil.restart
Info: RESTART FREQUENCY      100000
Info: BINARY RESTART FILES WILL BE USED
Info: CUTOFF                 9
Info: PAIRLIST DISTANCE      11
Info: PAIRLIST SHRINK RATE   0.01
Info: PAIRLIST GROW RATE     0.01
Info: PAIRLIST TRIGGER       0.3
Info: PAIRLISTS PER CYCLE    2
Info: PAIRLISTS ENABLED
Info: MARGIN                 8
Info: HYDROGEN GROUP CUTOFF  2.5
Info: PATCH DIMENSION        21.5
Info: ENERGY OUTPUT STEPS    100000
Info: ENERGY EVALUATION STEPS    100000
Info: OUTPUT ENERGY PRECISION 4
Info: CROSSTERM ENERGY INCLUDED IN DIHEDRAL
Info: TIMING OUTPUT STEPS    1000000
Info: PRESSURE OUTPUT STEPS  100000
Info: FIXED ATOMS ACTIVE
Info: LANGEVIN DYNAMICS ACTIVE
Info: LANGEVIN TEMPERATURE   30
Info: LANGEVIN USING BBK INTEGRATOR
Info: LANGEVIN DAMPING COEFFICIENT IS 1 INVERSE PS
Info: LANGEVIN DYNAMICS APPLIED TO HYDROGENS
Info: LANGEVIN PISTON PRESSURE CONTROL ACTIVE
Info:        TARGET PRESSURE IS 1.01325 BAR
Info:     OSCILLATION PERIOD IS 50 FS
Info:             DECAY TIME IS 25 FS
Info:     PISTON TEMPERATURE IS 300 K
Info:       PRESSURE CONTROL IS GROUP-BASED
Info:    INITIAL STRAIN RATE IS 0 0 0
Info:       CELL FLUCTUATION IS ISOTROPIC
Info: PARTICLE MESH EWALD (PME) ACTIVE
Info: PME TOLERANCE               1e-06
Info: PME EWALD COEFFICIENT       0.348832
Info: PME INTERPOLATION ORDER     4
Info: PME GRID DIMENSIONS         40 36 36
Info: PME MAXIMUM GRID SPACING    1
Info: FULL ELECTROSTATIC EVALUATION FREQUENCY      2
Info: USING VERLET I (r-RESPA) MTS SCHEME.
Info: C1 SPLITTING OF LONG RANGE ELECTROSTATICS
Info: PLACING ATOMS IN PATCHES BY HYDROGEN GROUPS
Info: RIGID BONDS TO HYDROGEN : ALL
Info:         ERROR TOLERANCE : 1e-08
Info:          MAX ITERATIONS : 100
Info: RIGID WATER USING SETTLE ALGORITHM
Info: RANDOM NUMBER SEED     1744089485
Info: USE HYDROGEN BONDS?    NO
Info: Using AMBER format force field!
Info: AMBER PARM FILE        mobley_1903702.prmtop
Info: COORDINATE PDB         mobley_1903702.pdb
Info: Exclusions will be read from PARM file!
Info: SCNB (VDW SCALING)     2
Info: USING ARITHMETIC MEAN TO COMBINE L-J SIGMA PARAMETERS
Info: BINARY COORDINATES     mobley_1903702_min.coor
Info: SUMMARY OF PARAMETERS:
Info: 7 BONDS
Info: 7 ANGLES
Info:   7 HARMONIC
Info:   0 COSINE-BASED
Info: 9 DIHEDRAL
Info: 0 IMPROPER
Info: 0 CROSSTERM
Info: 0 VDW
Info: 21 VDW_PAIRS
Info: 0 NBTHOLE_PAIRS
Info: STRUCTURE SUMMARY:
Info: 2988 ATOMS
Info: 2987 BONDS
Info: 25 ANGLES
Info: 39 DIHEDRALS
Info: 0 IMPROPERS
Info: 0 CROSSTERMS
Info: 3042 EXCLUSIONS
Info: 15 FIXED ATOMS
Info: 2983 RIGID BONDS
Info: 10 RIGID BONDS BETWEEN FIXED ATOMS
Info: 5946 DEGREES OF FREEDOM
Info: 996 HYDROGEN GROUPS
Info: 4 ATOMS IN LARGEST HYDROGEN GROUP
Info: 996 MIGRATION GROUPS
Info: 4 ATOMS IN LARGEST MIGRATION GROUP
Info: 5 HYDROGEN GROUPS WITH ALL ATOMS FIXED
Info: TOTAL MASS = 17928 amu
Info: TOTAL CHARGE = 0.00010002 e
Info: MASS DENSITY = 0.670343 g/cm^3
Info: ATOM DENSITY = 0.0672802 atoms/A^3
Info: ADDED 0 IMPLICIT EXCLUSIONS
Info: NONBONDED TABLE R-SQUARED SPACING: 0.0625
Info: NONBONDED TABLE SIZE: 705 POINTS
Info: REMOVING COM VELOCITY 0.0122325 -0.0198977 0.123469
TCL: Running for 100000 steps
ETITLE: TS BOND ANGLE DIHED IMPRP ELECT VDW BOUNDARY MISC KINETIC TOTAL TEMP POTENTIAL TOTAL3 TEMPAVG PRESSURE GPRESSURE VOLUME PRESSAVG GPRESSAVG
ENERGY: 0 0.0000 0.0000 0.0000 0.0000 -13844.0088 2402.0459 0.0000 0.0000 1692.5811 -9749.3818 286.4936 -11441.9629 -9749.0778 286.4936 267.5383 310.2838 44411.2840 267.5383 310.2838
ENERGY: 100000 0.0000 0.0000 0.0000 0.0000 -14348.9463 2455.4733 0.0000 0.0000 179.5918 -11713.8812 30.3985 -11893.4730 -11713.4236 30.8747 -259.5524 -220.1912 29225.3697 3.4461 3.5039
TCL: Running 100000 steps at 60 kelvin.
TCL: Setting parameter langevinTemp to 60
TCL: Running for 100000 steps
ETITLE: TS BOND ANGLE DIHED IMPRP ELECT VDW BOUNDARY MISC KINETIC TOTAL TEMP POTENTIAL TOTAL3 TEMPAVG PRESSURE GPRESSURE VOLUME PRESSAVG GPRESSAVG
ENERGY: 100000 0.0000 0.0000 0.0000 0.0000 -14348.9463 2455.4733 0.0000 0.0000 179.5019 -11713.9712 30.3833 -11893.4730 -11713.6390 30.3833 -252.9891 -220.0872 29225.3697 -252.9891 -220.0872
ENERGY: 200000 0.0000 0.0000 0.0000 0.0000 -14338.5450 2485.5375 0.0000 0.0000 355.7821 -11497.2254 60.2212 -11853.0075 -11496.2093 60.0625 235.9930 284.9762 29015.2674 4.6601 4.5936
TCL: Running 100000 steps at 90 kelvin.
TCL: Setting parameter langevinTemp to 90
TCL: Running for 100000 steps
ETITLE: TS BOND ANGLE DIHED IMPRP ELECT VDW BOUNDARY MISC KINETIC TOTAL TEMP POTENTIAL TOTAL3 TEMPAVG PRESSURE GPRESSURE VOLUME PRESSAVG GPRESSAVG
ENERGY: 200000 0.0000 0.0000 0.0000 0.0000 -14338.5450 2485.5375 0.0000 0.0000 355.5980 -11497.4095 60.1901 -11853.0075 -11496.6763 60.1901 235.6973 284.9050 29015.2674 235.6973 284.9050
ENERGY: 300000 0.0000 0.0000 0.0000 0.0000 -14121.6474 2353.0602 0.0000 0.0000 540.2184 -11228.3688 91.4397 -11768.5872 -11226.7081 89.8008 -574.7630 -509.5638 29212.0477 3.6937 3.7461
TCL: Running 100000 steps at 120 kelvin.
TCL: Setting parameter langevinTemp to 120
TCL: Running for 100000 steps
ETITLE: TS BOND ANGLE DIHED IMPRP ELECT VDW BOUNDARY MISC KINETIC TOTAL TEMP POTENTIAL TOTAL3 TEMPAVG PRESSURE GPRESSURE VOLUME PRESSAVG GPRESSAVG
ENERGY: 300000 0.0000 0.0000 0.0000 0.0000 -14121.6474 2353.0602 0.0000 0.0000 539.9499 -11228.6373 91.3943 -11768.5872 -11227.1370 91.3943 -570.0042 -509.3050 29212.0477 -570.0042 -509.3050
ENERGY: 400000 0.0000 0.0000 0.0000 0.0000 -14014.2185 2401.3226 0.0000 0.0000 721.5544 -10891.3415 122.1334 -11612.8959 -10890.5419 119.9964 450.8630 519.1605 29144.3098 3.7352 3.8376
TCL: Running 100000 steps at 150 kelvin.
TCL: Setting parameter langevinTemp to 150
TCL: Running for 100000 steps
ETITLE: TS BOND ANGLE DIHED IMPRP ELECT VDW BOUNDARY MISC KINETIC TOTAL TEMP POTENTIAL TOTAL3 TEMPAVG PRESSURE GPRESSURE VOLUME PRESSAVG GPRESSAVG
ENERGY: 400000 0.0000 0.0000 0.0000 0.0000 -14014.2185 2401.3226 0.0000 0.0000 721.2085 -10891.6874 122.0749 -11612.8959 -10890.4924 122.0749 470.7017 518.8805 29144.3098 470.7017 518.8805
ENERGY: 500000 0.0000 0.0000 0.0000 0.0000 -13722.0914 2285.3955 0.0000 0.0000 902.2779 -10534.4180 152.7235 -11436.6960 -10532.5498 149.9069 -32.1470 36.2771 29413.0096 4.7418 4.7607
TCL: Running 100000 steps at 180 kelvin.
TCL: Setting parameter langevinTemp to 180
TCL: Running for 100000 steps
ETITLE: TS BOND ANGLE DIHED IMPRP ELECT VDW BOUNDARY MISC KINETIC TOTAL TEMP POTENTIAL TOTAL3 TEMPAVG PRESSURE GPRESSURE VOLUME PRESSAVG GPRESSAVG
ENERGY: 500000 0.0000 0.0000 0.0000 0.0000 -13722.0914 2285.3955 0.0000 0.0000 901.7985 -10534.8975 152.6423 -11436.6960 -10533.4522 152.6423 -9.3609 36.7603 29413.0096 -9.3609 36.7603
ENERGY: 600000 0.0000 0.0000 0.0000 0.0000 -13232.2282 2088.5365 0.0000 0.0000 1103.9613 -10039.7305 186.8613 -11143.6918 -10036.8558 180.2267 -189.1651 -90.8471 29045.7209 3.2094 3.0992
TCL: Running 100000 steps at 210 kelvin.
TCL: Setting parameter langevinTemp to 210
TCL: Running for 100000 steps
ETITLE: TS BOND ANGLE DIHED IMPRP ELECT VDW BOUNDARY MISC KINETIC TOTAL TEMP POTENTIAL TOTAL3 TEMPAVG PRESSURE GPRESSURE VOLUME PRESSAVG GPRESSAVG
ENERGY: 600000 0.0000 0.0000 0.0000 0.0000 -13232.2282 2088.5365 0.0000 0.0000 1103.4445 -10040.2472 186.7738 -11143.6918 -10038.2168 186.7738 -157.4478 -90.4440 29045.7209 -157.4478 -90.4440
ENERGY: 700000 0.0000 0.0000 0.0000 0.0000 -12739.5446 1987.8083 0.0000 0.0000 1225.6585 -9526.0779 207.4603 -10751.7364 -9521.4689 209.2024 322.8718 410.7619 29035.4455 3.7939 3.8021
TCL: Running 100000 steps at 240 kelvin.
TCL: Setting parameter langevinTemp to 240
TCL: Running for 100000 steps
ETITLE: TS BOND ANGLE DIHED IMPRP ELECT VDW BOUNDARY MISC KINETIC TOTAL TEMP POTENTIAL TOTAL3 TEMPAVG PRESSURE GPRESSURE VOLUME PRESSAVG GPRESSAVG
ENERGY: 700000 0.0000 0.0000 0.0000 0.0000 -12739.5446 1987.8083 0.0000 0.0000 1225.0611 -9526.6753 207.3592 -10751.7364 -9524.4816 207.3592 334.7364 411.8527 29035.4455 334.7364 411.8527
ENERGY: 800000 0.0000 0.0000 0.0000 0.0000 -12023.4902 1738.5412 0.0000 0.0000 1400.6334 -8884.3157 237.0773 -10284.9491 -8881.3183 239.8383 -30.7582 2.0287 29323.0223 2.9395 2.8514
TCL: Running 100000 steps at 270 kelvin.
TCL: Setting parameter langevinTemp to 270
TCL: Running for 100000 steps
ETITLE: TS BOND ANGLE DIHED IMPRP ELECT VDW BOUNDARY MISC KINETIC TOTAL TEMP POTENTIAL TOTAL3 TEMPAVG PRESSURE GPRESSURE VOLUME PRESSAVG GPRESSAVG
ENERGY: 800000 0.0000 0.0000 0.0000 0.0000 -12023.4902 1738.5412 0.0000 0.0000 1399.9384 -8885.0107 236.9596 -10284.9491 -8882.5995 236.9596 -84.5978 3.0270 29323.0223 -84.5978 3.0270
ENERGY: 900000 0.0000 0.0000 0.0000 0.0000 -11446.4492 1633.5174 0.0000 0.0000 1584.5181 -8228.4138 268.2024 -9812.9319 -8225.0690 269.2135 480.5322 601.9381 29679.0488 4.1116 4.0316
TCL: Running 1000000 steps at 300 kelvin.
TCL: Setting parameter langevinTemp to 300
TCL: Running for 1000000 steps
ETITLE: TS BOND ANGLE DIHED IMPRP ELECT VDW BOUNDARY MISC KINETIC TOTAL TEMP POTENTIAL TOTAL3 TEMPAVG PRESSURE GPRESSURE VOLUME PRESSAVG GPRESSAVG
ENERGY: 900000 0.0000 0.0000 0.0000 0.0000 -11446.4492 1633.5174 0.0000 0.0000 1583.7677 -8229.1642 268.0754 -9812.9319 -8227.7779 268.0754 507.6369 600.9346 29679.0488 507.6369 600.9346
ENERGY: 1100000 0.0000 0.0000 0.0000 0.0000 -10720.1949 1413.5710 0.0000 0.0000 1840.0384 -7466.5855 311.4529 -9306.6239 -7463.5496 300.4784 -174.0141 -69.7448 31166.8417 3.2626 3.2961
ENERGY: 1300000 0.0000 0.0000 0.0000 0.0000 -10837.3856 1388.0107 0.0000 0.0000 1750.7237 -7698.6512 296.3351 -9449.3749 -7694.9377 299.7187 -578.2676 -497.6605 30598.9815 3.1456 3.3065
ENERGY: 1500000 0.0000 0.0000 0.0000 0.0000 -10843.0526 1398.9163 0.0000 0.0000 1860.2303 -7583.9061 314.8707 -9444.1363 -7579.8378 299.5775 -341.4022 -214.4423 30368.5748 3.6395 3.7856
ENERGY: 1700000 0.0000 0.0000 0.0000 0.0000 -10980.8242 1586.5895 0.0000 0.0000 1799.3007 -7594.9340 304.5574 -9394.2347 -7592.3825 300.9835 973.0698 1022.7676 30746.7544 2.8088 2.7871
ENERGY: 1900000 0.0000 0.0000 0.0000 0.0000 -10842.8404 1389.8298 0.0000 0.0000 1741.2607 -7711.7499 294.7333 -9453.0106 -7708.5582 299.7163 -602.3606 -558.8553 30485.4278 2.6963 2.5082
TCL: Exiting due to exit command.
