Info: SIMULATION PARAMETERS:
Info: TIMESTEP               2
Info: NUMBER OF STEPS        0
Info: STEPS PER CYCLE        10
Info: PERIODIC CELL BASIS 1  37.968 0 0
Info: PERIODIC CELL BASIS 2  0 34.26 0
Info: PERIODIC CELL BASIS 3  0 0 33.876
Info: PERIODIC CELL CENTER   0 0 0
Info: WRAPPING WATERS AROUND PERIODIC BOUNDARIES ON OUTPUT.
Info: WRAPPING ALL CLUSTERS AROUND PERIODIC BOUNDARIES ON OUTPUT.
Info: FIRST LDB TIMESTEP     50
Info: LAST LDB TIMESTEP     -1
Info: HOM BACKGROUND SCALING 1
Info: PME BACKGROUND SCALING 1
Info: MIN ATOMS PER PATCH    40
Info: EMPTY PATCH LOAD       40 ATOMS
Info: INITIAL TEMPERATURE    300
Info: CENTER OF MASS MOVING INITIALLY? NO
Info: DIELECTRIC             1
Info: EXCLUDE                SCALED ONE-FOUR
Info: 1-4 ELECTROSTATICS SCALED BY 0.833333
Info: MODIFIED 1-4 VDW PARAMETERS WILL BE USED
Info: DCD FILENAME           mobley_6929123_equil.dcd
Info: DCD FREQUENCY          100000
Info: DCD FIRST STEP         100000
Info: DCD FILE WILL CONTAIN UNIT CELL DATA
Info: XST FILENAME           mobley_6929123_equil.xst
Info: XST FREQUENCY          100000
Info: NO VELOCITY DCD OUTPUT
Info: NO FORCE DCD OUTPUT
Info: OUTPUT FILENAME        mobley_6929123_equil
Info: BINARY OUTPUT FILES WILL BE USED
Info: RESTART FILENAME       mobley_6929123_equil.restart
Info: RESTART FREQUENCY      100000
Info: BINARY RESTART FILES WILL BE USED
Info: CUTOFF                 9
Info: PAIRLIST DISTANCE      11
Info: PAIRLIST SHRINK RATE   0.01
Info: PAIRLIST GROW RATE     0.01
Info: PAIRLIST TRIGGER       0.3
Info: PAIRLISTS PER CYCLE    2
Info: PAIRLISTS ENABLED
Info: MARGIN                 8
Info: HYDROGEN GROUP CUTOFF  2.5
Info: PATCH DIMENSION        21.5
Info: ENERGY OUTPUT STEPS    100000
Info: ENERGY EVALUATION STEPS    100000
Info: OUTPUT ENERGY PRECISION 4
Info: CROSSTERM ENERGY INCLUDED IN DIHEDRAL
Info: TIMING OUTPUT STEPS    1000000
Info: PRESSURE OUTPUT STEPS  100000
Info: FIXED ATOMS ACTIVE
Info: LANGEVIN DYNAMICS ACTIVE
Info: LANGEVIN TEMPERATURE   30
Info: LANGEVIN USING BBK INTEGRATOR
Info: LANGEVIN DAMPING COEFFICIENT IS 1 INVERSE PS
Info: LANGEVIN DYNAMICS APPLIED TO HYDROGENS
Info: LANGEVIN PISTON PRESSURE CONTROL ACTIVE
Info:        TARGET PRESSURE IS 1.01325 BAR
Info:     OSCILLATION PERIOD IS 50 FS
Info:             DECAY TIME IS 25 FS
Info:     PISTON TEMPERATURE IS 300 K
Info:       PRESSURE CONTROL IS GROUP-BASED
Info:    INITIAL STRAIN RATE IS 0 0 0
Info:       CELL FLUCTUATION IS ISOTROPIC
Info: PARTICLE MESH EWALD (PME) ACTIVE
Info: PME TOLERANCE               1e-06
Info: PME EWALD COEFFICIENT       0.348832
Info: PME INTERPOLATION ORDER     4
Info: PME GRID DIMENSIONS         40 36 36
Info: PME MAXIMUM GRID SPACING    1
Info: FULL ELECTROSTATIC EVALUATION FREQUENCY      2
Info: USING VERLET I (r-RESPA) MTS SCHEME.
Info: C1 SPLITTING OF LONG RANGE ELECTROSTATICS
Info: PLACING ATOMS IN PATCHES BY HYDROGEN GROUPS
Info: RIGID BONDS TO HYDROGEN : ALL
Info:         ERROR TOLERANCE : 1e-08
Info:          MAX ITERATIONS : 100
Info: RIGID WATER USING SETTLE ALGORITHM
Info: RANDOM NUMBER SEED     1743900859
Info: USE HYDROGEN BONDS?    NO
Info: Using AMBER format force field!
Info: AMBER PARM FILE        mobley_6929123.prmtop
Info: COORDINATE PDB         mobley_6929123.pdb
Info: Exclusions will be read from PARM file!
Info: SCNB (VDW SCALING)     2
Info: USING ARITHMETIC MEAN TO COMBINE L-J SIGMA PARAMETERS
Info: BINARY COORDINATES     mobley_6929123_min.coor
Info: SUMMARY OF PARAMETERS:
Info: 8 BONDS
Info: 9 ANGLES
Info:   9 HARMONIC
Info:   0 COSINE-BASED
Info: 10 DIHEDRAL
Info: 0 IMPROPER
Info: 0 CROSSTERM
Info: 0 VDW
Info: 36 VDW_PAIRS
Info: 0 NBTHOLE_PAIRS
Info: STRUCTURE SUMMARY:
Info: 2963 ATOMS
Info: 2962 BONDS
Info: 16 ANGLES
Info: 19 DIHEDRALS
Info: 0 IMPROPERS
Info: 0 CROSSTERMS
Info: 2989 EXCLUSIONS
Info: 11 FIXED ATOMS
Info: 2957 RIGID BONDS
Info: 5 RIGID BONDS BETWEEN FIXED ATOMS
Info: 5904 DEGREES OF FREEDOM
Info: 990 HYDROGEN GROUPS
Info: 4 ATOMS IN LARGEST HYDROGEN GROUP
Info: 990 MIGRATION GROUPS
Info: 4 ATOMS IN LARGEST MIGRATION GROUP
Info: 6 HYDROGEN GROUPS WITH ALL ATOMS FIXED
Info: TOTAL MASS = 17836.3 amu
Info: TOTAL CHARGE = -0.000200043 e
Info: MASS DENSITY = 0.67215 g/cm^3
Info: ATOM DENSITY = 0.067241 atoms/A^3
Info: ADDED 0 IMPLICIT EXCLUSIONS
Info: NONBONDED TABLE R-SQUARED SPACING: 0.0625
Info: NONBONDED TABLE SIZE: 705 POINTS
Info: REMOVING COM VELOCITY 0.203653 0.0607157 -0.117159
TCL: Running for 100000 steps
ETITLE: TS BOND ANGLE DIHED IMPRP ELECT VDW BOUNDARY MISC KINETIC TOTAL TEMP POTENTIAL TOTAL3 TEMPAVG PRESSURE GPRESSURE VOLUME PRESSAVG GPRESSAVG
ENERGY: 0 0.0000 0.0000 0.0000 0.0000 -13792.4254 2403.6720 0.0000 0.0000 1727.7957 -9660.9576 294.5347 -11388.7533 -9660.6119 294.5347 377.8299 409.7861 44065.3479 377.8299 409.7861
ENERGY: 100000 0.0000 0.0000 0.0000 0.0000 -14276.2320 2433.1286 0.0000 0.0000 175.9263 -11667.1771 29.9899 -11843.1034 -11666.7241 30.9022 -359.4882 -283.0487 29032.6899 3.8887 3.9344
TCL: Running 100000 steps at 60 kelvin.
TCL: Setting parameter langevinTemp to 60
TCL: Running for 100000 steps
ETITLE: TS BOND ANGLE DIHED IMPRP ELECT VDW BOUNDARY MISC KINETIC TOTAL TEMP POTENTIAL TOTAL3 TEMPAVG PRESSURE GPRESSURE VOLUME PRESSAVG GPRESSAVG
ENERGY: 100000 0.0000 0.0000 0.0000 0.0000 -14276.2320 2433.1286 0.0000 0.0000 175.8397 -11667.2637 29.9751 -11843.1034 -11666.8775 29.9751 -340.2894 -282.8692 29032.6899 -340.2894 -282.8692
ENERGY: 200000 0.0000 0.0000 0.0000 0.0000 -14313.0323 2488.8646 0.0000 0.0000 363.8625 -11460.3052 62.0271 -11824.1677 -11459.6190 59.9670 355.9284 423.5343 28611.3083 2.5123 2.5462
TCL: Running 100000 steps at 90 kelvin.
TCL: Setting parameter langevinTemp to 90
TCL: Running for 100000 steps
ETITLE: TS BOND ANGLE DIHED IMPRP ELECT VDW BOUNDARY MISC KINETIC TOTAL TEMP POTENTIAL TOTAL3 TEMPAVG PRESSURE GPRESSURE VOLUME PRESSAVG GPRESSAVG
ENERGY: 200000 0.0000 0.0000 0.0000 0.0000 -14313.0323 2488.8646 0.0000 0.0000 363.6903 -11460.4774 61.9977 -11824.1677 -11459.7441 61.9977 360.6815 423.6938 28611.3083 360.6815 423.6938
ENERGY: 300000 0.0000 0.0000 0.0000 0.0000 -14099.5725 2383.8179 0.0000 0.0000 524.4063 -11191.3483 89.3947 -11715.7546 -11190.2089 89.7838 -146.0382 -85.5438 28704.5918 3.8930 3.9199
TCL: Running 100000 steps at 120 kelvin.
TCL: Setting parameter langevinTemp to 120
TCL: Running for 100000 steps
ETITLE: TS BOND ANGLE DIHED IMPRP ELECT VDW BOUNDARY MISC KINETIC TOTAL TEMP POTENTIAL TOTAL3 TEMPAVG PRESSURE GPRESSURE VOLUME PRESSAVG GPRESSAVG
ENERGY: 300000 0.0000 0.0000 0.0000 0.0000 -14099.5725 2383.8179 0.0000 0.0000 524.1406 -11191.6140 89.3494 -11715.7546 -11190.4379 89.3494 -132.9457 -85.6635 28704.5918 -132.9457 -85.6635
ENERGY: 400000 0.0000 0.0000 0.0000 0.0000 -13955.0714 2390.6405 0.0000 0.0000 726.1258 -10838.3050 123.7815 -11564.4309 -10836.6507 120.2092 457.1309 534.8023 28797.3354 4.8220 4.8375
TCL: Running 100000 steps at 150 kelvin.
TCL: Setting parameter langevinTemp to 150
TCL: Running for 100000 steps
ETITLE: TS BOND ANGLE DIHED IMPRP ELECT VDW BOUNDARY MISC KINETIC TOTAL TEMP POTENTIAL TOTAL3 TEMPAVG PRESSURE GPRESSURE VOLUME PRESSAVG GPRESSAVG
ENERGY: 400000 0.0000 0.0000 0.0000 0.0000 -13955.0714 2390.6405 0.0000 0.0000 725.7690 -10838.6619 123.7207 -11564.4309 -10837.3633 123.7207 479.4110 534.4369 28797.3354 479.4110 534.4369
ENERGY: 500000 0.0000 0.0000 0.0000 0.0000 -13794.3940 2417.7234 0.0000 0.0000 883.0479 -10493.6227 150.5318 -11376.6706 -10491.6611 150.1963 922.1300 1042.3783 29318.5037 4.0246 3.9050
TCL: Running 100000 steps at 180 kelvin.
TCL: Setting parameter langevinTemp to 180
TCL: Running for 100000 steps
ETITLE: TS BOND ANGLE DIHED IMPRP ELECT VDW BOUNDARY MISC KINETIC TOTAL TEMP POTENTIAL TOTAL3 TEMPAVG PRESSURE GPRESSURE VOLUME PRESSAVG GPRESSAVG
ENERGY: 500000 0.0000 0.0000 0.0000 0.0000 -13794.3940 2417.7234 0.0000 0.0000 882.5946 -10494.0759 150.4545 -11376.6706 -10492.5759 150.4545 993.6682 1042.7406 29318.5037 993.6682 1042.7406
ENERGY: 600000 0.0000 0.0000 0.0000 0.0000 -13365.7277 2261.6912 0.0000 0.0000 1055.9002 -10048.1363 179.9977 -11104.0365 -10046.3952 179.5987 972.4673 1030.3466 29166.6213 3.6087 3.7286
TCL: Running 100000 steps at 210 kelvin.
TCL: Setting parameter langevinTemp to 210
TCL: Running for 100000 steps
ETITLE: TS BOND ANGLE DIHED IMPRP ELECT VDW BOUNDARY MISC KINETIC TOTAL TEMP POTENTIAL TOTAL3 TEMPAVG PRESSURE GPRESSURE VOLUME PRESSAVG GPRESSAVG
ENERGY: 600000 0.0000 0.0000 0.0000 0.0000 -13365.7277 2261.6912 0.0000 0.0000 1055.3575 -10048.6790 179.9052 -11104.0365 -10046.8783 179.9052 953.3121 1030.7001 29166.6213 953.3121 1030.7001
ENERGY: 700000 0.0000 0.0000 0.0000 0.0000 -12661.0440 1967.3156 0.0000 0.0000 1229.1042 -9464.6243 209.5235 -10693.7285 -9461.3363 209.9538 130.0903 257.5570 29100.0878 3.4219 3.4183
TCL: Running 100000 steps at 240 kelvin.
TCL: Setting parameter langevinTemp to 240
TCL: Running for 100000 steps
ETITLE: TS BOND ANGLE DIHED IMPRP ELECT VDW BOUNDARY MISC KINETIC TOTAL TEMP POTENTIAL TOTAL3 TEMPAVG PRESSURE GPRESSURE VOLUME PRESSAVG GPRESSAVG
ENERGY: 700000 0.0000 0.0000 0.0000 0.0000 -12661.0440 1967.3156 0.0000 0.0000 1228.4819 -9465.2466 209.4174 -10693.7285 -9463.3801 209.4174 185.5638 257.8116 29100.0878 185.5638 257.8116
ENERGY: 800000 0.0000 0.0000 0.0000 0.0000 -11829.4454 1697.7613 0.0000 0.0000 1419.2405 -8712.4436 241.9357 -10131.6841 -8709.8529 240.4933 -216.0671 -140.3695 29501.6994 4.5249 4.5196
TCL: Running 100000 steps at 270 kelvin.
TCL: Setting parameter langevinTemp to 270
TCL: Running for 100000 steps
ETITLE: TS BOND ANGLE DIHED IMPRP ELECT VDW BOUNDARY MISC KINETIC TOTAL TEMP POTENTIAL TOTAL3 TEMPAVG PRESSURE GPRESSURE VOLUME PRESSAVG GPRESSAVG
ENERGY: 800000 0.0000 0.0000 0.0000 0.0000 -11829.4454 1697.7613 0.0000 0.0000 1418.5461 -8713.1381 241.8174 -10131.6841 -8710.4987 241.8174 -219.4691 -139.6631 29501.6994 -219.4691 -139.6631
ENERGY: 900000 0.0000 0.0000 0.0000 0.0000 -11236.8486 1447.4290 0.0000 0.0000 1595.9190 -8193.5005 272.0539 -9789.4196 -8187.6537 268.8712 -1091.8095 -1028.5102 29820.3705 3.9586 3.8769
TCL: Running 1000000 steps at 300 kelvin.
TCL: Setting parameter langevinTemp to 300
TCL: Running for 1000000 steps
ETITLE: TS BOND ANGLE DIHED IMPRP ELECT VDW BOUNDARY MISC KINETIC TOTAL TEMP POTENTIAL TOTAL3 TEMPAVG PRESSURE GPRESSURE VOLUME PRESSAVG GPRESSAVG
ENERGY: 900000 0.0000 0.0000 0.0000 0.0000 -11236.8486 1447.4290 0.0000 0.0000 1595.1029 -8194.3167 271.9147 -9789.4196 -8191.7195 271.9147 -1103.9484 -1026.2440 29820.3705 -1103.9484 -1026.2440
ENERGY: 1100000 0.0000 0.0000 0.0000 0.0000 -10813.1459 1445.5762 0.0000 0.0000 1787.7835 -7579.7862 304.7607 -9367.5698 -7575.3098 300.4265 42.4503 63.8140 30593.5080 2.9858 3.0192
ENERGY: 1300000 0.0000 0.0000 0.0000 0.0000 -10888.5996 1504.0287 0.0000 0.0000 1813.0608 -7571.5101 309.0697 -9384.5709 -7568.7769 300.4023 678.6175 705.4663 30265.3314 3.9563 3.8599
ENERGY: 1500000 0.0000 0.0000 0.0000 0.0000 -10761.0583 1445.2898 0.0000 0.0000 1763.0136 -7552.7549 300.5382 -9315.7685 -7551.6969 299.5034 128.9576 205.6827 30494.7779 3.8299 3.9054
ENERGY: 1700000 0.0000 0.0000 0.0000 0.0000 -10923.3043 1497.6637 0.0000 0.0000 1795.6326 -7630.0080 306.0987 -9425.6406 -7626.4545 300.0354 470.8382 531.2579 30073.4968 4.5713 4.4282
ENERGY: 1900000 0.0000 0.0000 0.0000 0.0000 -10864.1676 1465.8559 0.0000 0.0000 1792.9939 -7605.3179 305.6489 -9398.3117 -7601.5998 299.4686 397.2247 475.4186 29973.6830 2.5914 2.4168
TCL: Exiting due to exit command.
