Info: SIMULATION PARAMETERS:
Info: TIMESTEP               2
Info: NUMBER OF STEPS        0
Info: STEPS PER CYCLE        10
Info: PERIODIC CELL BASIS 1  36.005 0 0
Info: PERIODIC CELL BASIS 2  0 34.26 0
Info: PERIODIC CELL BASIS 3  0 0 35.644
Info: PERIODIC CELL CENTER   0 0 0
Info: WRAPPING WATERS AROUND PERIODIC BOUNDARIES ON OUTPUT.
Info: WRAPPING ALL CLUSTERS AROUND PERIODIC BOUNDARIES ON OUTPUT.
Info: FIRST LDB TIMESTEP     50
Info: LAST LDB TIMESTEP     -1
Info: HOM BACKGROUND SCALING 1
Info: PME BACKGROUND SCALING 1
Info: MIN ATOMS PER PATCH    40
Info: EMPTY PATCH LOAD       40 ATOMS
Info: INITIAL TEMPERATURE    300
Info: CENTER OF MASS MOVING INITIALLY? NO
Info: DIELECTRIC             1
Info: EXCLUDE                SCALED ONE-FOUR
Info: 1-4 ELECTROSTATICS SCALED BY 0.833333
Info: MODIFIED 1-4 VDW PARAMETERS WILL BE USED
Info: DCD FILENAME           mobley_9794857_equil.dcd
Info: DCD FREQUENCY          100000
Info: DCD FIRST STEP         100000
Info: DCD FILE WILL CONTAIN UNIT CELL DATA
Info: XST FILENAME           mobley_9794857_equil.xst
Info: XST FREQUENCY          100000
Info: NO VELOCITY DCD OUTPUT
Info: NO FORCE DCD OUTPUT
Info: OUTPUT FILENAME        mobley_9794857_equil
Info: BINARY OUTPUT FILES WILL BE USED
Info: RESTART FILENAME       mobley_9794857_equil.restart
Info: RESTART FREQUENCY      100000
Info: BINARY RESTART FILES WILL BE USED
Info: CUTOFF                 9
Info: PAIRLIST DISTANCE      11
Info: PAIRLIST SHRINK RATE   0.01
Info: PAIRLIST GROW RATE     0.01
Info: PAIRLIST TRIGGER       0.3
Info: PAIRLISTS PER CYCLE    2
Info: PAIRLISTS ENABLED
Info: MARGIN                 8
Info: HYDROGEN GROUP CUTOFF  2.5
Info: PATCH DIMENSION        21.5
Info: ENERGY OUTPUT STEPS    100000
Info: ENERGY EVALUATION STEPS    100000
Info: OUTPUT ENERGY PRECISION 4
Info: CROSSTERM ENERGY INCLUDED IN DIHEDRAL
Info: TIMING OUTPUT STEPS    1000000
Info: PRESSURE OUTPUT STEPS  100000
Info: FIXED ATOMS ACTIVE
Info: LANGEVIN DYNAMICS ACTIVE
Info: LANGEVIN TEMPERATURE   30
Info: LANGEVIN USING BBK INTEGRATOR
Info: LANGEVIN DAMPING COEFFICIENT IS 1 INVERSE PS
Info: LANGEVIN DYNAMICS APPLIED TO HYDROGENS
Info: LANGEVIN PISTON PRESSURE CONTROL ACTIVE
Info:        TARGET PRESSURE IS 1.01325 BAR
Info:     OSCILLATION PERIOD IS 50 FS
Info:             DECAY TIME IS 25 FS
Info:     PISTON TEMPERATURE IS 300 K
Info:       PRESSURE CONTROL IS GROUP-BASED
Info:    INITIAL STRAIN RATE IS 0 0 0
Info:       CELL FLUCTUATION IS ISOTROPIC
Info: PARTICLE MESH EWALD (PME) ACTIVE
Info: PME TOLERANCE               1e-06
Info: PME EWALD COEFFICIENT       0.348832
Info: PME INTERPOLATION ORDER     4
Info: PME GRID DIMENSIONS         40 36 36
Info: PME MAXIMUM GRID SPACING    1
Info: FULL ELECTROSTATIC EVALUATION FREQUENCY      2
Info: USING VERLET I (r-RESPA) MTS SCHEME.
Info: C1 SPLITTING OF LONG RANGE ELECTROSTATICS
Info: PLACING ATOMS IN PATCHES BY HYDROGEN GROUPS
Info: RIGID BONDS TO HYDROGEN : ALL
Info:         ERROR TOLERANCE : 1e-08
Info:          MAX ITERATIONS : 100
Info: RIGID WATER USING SETTLE ALGORITHM
Info: RANDOM NUMBER SEED     1743742930
Info: USE HYDROGEN BONDS?    NO
Info: Using AMBER format force field!
Info: AMBER PARM FILE        mobley_9794857.prmtop
Info: COORDINATE PDB         mobley_9794857.pdb
Info: Exclusions will be read from PARM file!
Info: SCNB (VDW SCALING)     2
Info: USING ARITHMETIC MEAN TO COMBINE L-J SIGMA PARAMETERS
Info: BINARY COORDINATES     mobley_9794857_min.coor
Info: SUMMARY OF PARAMETERS:
Info: 6 BONDS
Info: 7 ANGLES
Info: 6 DIHEDRAL
Info: 0 IMPROPER
Info: 0 CROSSTERM
Info: 0 VDW
Info: 21 VDW_PAIRS
Info: 0 NBTHOLE_PAIRS
Info: STRUCTURE SUMMARY:
Info: 2934 ATOMS
Info: 2933 BONDS
Info: 31 ANGLES
Info: 45 DIHEDRALS
Info: 0 IMPROPERS
Info: 0 CROSSTERMS
Info: 2997 EXCLUSIONS
Info: 18 FIXED ATOMS
Info: 2928 RIGID BONDS
Info: 12 RIGID BONDS BETWEEN FIXED ATOMS
Info: 5832 DEGREES OF FREEDOM
Info: 978 HYDROGEN GROUPS
Info: 4 ATOMS IN LARGEST HYDROGEN GROUP
Info: 978 MIGRATION GROUPS
Info: 4 ATOMS IN LARGEST MIGRATION GROUP
Info: 6 HYDROGEN GROUPS WITH ALL ATOMS FIXED
Info: TOTAL MASS = 17599.7 amu
Info: TOTAL CHARGE = 0.000499986 e
Info: MASS DENSITY = 0.664703 g/cm^3
Info: ATOM DENSITY = 0.0667304 atoms/A^3
Info: ADDED 0 IMPLICIT EXCLUSIONS
Info: NONBONDED TABLE R-SQUARED SPACING: 0.0625
Info: NONBONDED TABLE SIZE: 705 POINTS
Info: REMOVING COM VELOCITY 0.0210016 0.0203064 -0.153471
TCL: Running for 100000 steps
ETITLE: TS BOND ANGLE DIHED IMPRP ELECT VDW BOUNDARY MISC KINETIC TOTAL TEMP POTENTIAL TOTAL3 TEMPAVG PRESSURE GPRESSURE VOLUME PRESSAVG GPRESSAVG
ENERGY: 0 0.0000 0.0000 0.0000 0.0000 -13573.1984 2375.9340 0.0000 0.0000 1775.3498 -9421.9146 306.3775 -11197.2644 -9421.5485 306.3775 335.1849 365.6689 43967.9897 335.1849 365.6689
ENERGY: 100000 0.0000 0.0000 0.0000 0.0000 -14111.3485 2430.9922 0.0000 0.0000 171.8405 -11508.5158 29.6550 -11680.3564 -11507.9053 30.9519 -309.8561 -257.1895 28836.3206 4.1651 4.1575
TCL: Running 100000 steps at 60 kelvin.
TCL: Setting parameter langevinTemp to 60
TCL: Running for 100000 steps
ETITLE: TS BOND ANGLE DIHED IMPRP ELECT VDW BOUNDARY MISC KINETIC TOTAL TEMP POTENTIAL TOTAL3 TEMPAVG PRESSURE GPRESSURE VOLUME PRESSAVG GPRESSAVG
ENERGY: 100000 0.0000 0.0000 0.0000 0.0000 -14111.3485 2430.9922 0.0000 0.0000 171.7476 -11508.6088 29.6390 -11680.3564 -11508.2447 29.6390 -297.6869 -257.0940 28836.3206 -297.6869 -257.0940
ENERGY: 200000 0.0000 0.0000 0.0000 0.0000 -14051.2994 2463.4440 0.0000 0.0000 356.8953 -11230.9601 61.5905 -11587.8555 -11229.9215 59.9711 647.1277 659.3092 28334.1531 3.1690 3.1555
TCL: Running 100000 steps at 90 kelvin.
TCL: Setting parameter langevinTemp to 90
TCL: Running for 100000 steps
ETITLE: TS BOND ANGLE DIHED IMPRP ELECT VDW BOUNDARY MISC KINETIC TOTAL TEMP POTENTIAL TOTAL3 TEMPAVG PRESSURE GPRESSURE VOLUME PRESSAVG GPRESSAVG
ENERGY: 200000 0.0000 0.0000 0.0000 0.0000 -14051.2994 2463.4440 0.0000 0.0000 356.7209 -11231.1345 61.5604 -11587.8555 -11230.4714 61.5604 609.6772 659.5852 28334.1531 609.6772 659.5852
ENERGY: 300000 0.0000 0.0000 0.0000 0.0000 -13914.5942 2375.3481 0.0000 0.0000 528.3422 -11010.9039 91.1776 -11539.2461 -11009.5636 89.8094 28.6343 95.7731 28388.8986 3.6429 3.5673
TCL: Running 100000 steps at 120 kelvin.
TCL: Setting parameter langevinTemp to 120
TCL: Running for 100000 steps
ETITLE: TS BOND ANGLE DIHED IMPRP ELECT VDW BOUNDARY MISC KINETIC TOTAL TEMP POTENTIAL TOTAL3 TEMPAVG PRESSURE GPRESSURE VOLUME PRESSAVG GPRESSAVG
ENERGY: 300000 0.0000 0.0000 0.0000 0.0000 -13914.5942 2375.3481 0.0000 0.0000 528.0836 -11011.1626 91.1330 -11539.2461 -11010.1703 91.1330 41.6364 95.6744 28388.8986 41.6364 95.6744
ENERGY: 400000 0.0000 0.0000 0.0000 0.0000 -13608.5735 2215.0267 0.0000 0.0000 705.9325 -10687.6143 121.8249 -11393.5467 -10685.4372 120.0063 -704.1807 -645.8031 28425.0688 4.5211 4.5251
TCL: Running 100000 steps at 150 kelvin.
TCL: Setting parameter langevinTemp to 150
TCL: Running for 100000 steps
ETITLE: TS BOND ANGLE DIHED IMPRP ELECT VDW BOUNDARY MISC KINETIC TOTAL TEMP POTENTIAL TOTAL3 TEMPAVG PRESSURE GPRESSURE VOLUME PRESSAVG GPRESSAVG
ENERGY: 400000 0.0000 0.0000 0.0000 0.0000 -13608.5735 2215.0267 0.0000 0.0000 705.5884 -10687.9583 121.7655 -11393.5467 -10686.4760 121.7655 -699.7303 -645.9374 28425.0688 -699.7303 -645.9374
ENERGY: 500000 0.0000 0.0000 0.0000 0.0000 -13367.7605 2180.7778 0.0000 0.0000 878.2611 -10308.7216 151.5642 -11186.9827 -10306.9643 149.9353 -328.4804 -256.0962 28772.9679 4.2818 4.2160
TCL: Running 100000 steps at 180 kelvin.
TCL: Setting parameter langevinTemp to 180
TCL: Running for 100000 steps
ETITLE: TS BOND ANGLE DIHED IMPRP ELECT VDW BOUNDARY MISC KINETIC TOTAL TEMP POTENTIAL TOTAL3 TEMPAVG PRESSURE GPRESSURE VOLUME PRESSAVG GPRESSAVG
ENERGY: 500000 0.0000 0.0000 0.0000 0.0000 -13367.7605 2180.7778 0.0000 0.0000 877.8216 -10309.1611 151.4883 -11186.9827 -10307.4366 151.4883 -304.7435 -256.8050 28772.9679 -304.7435 -256.8050
ENERGY: 600000 0.0000 0.0000 0.0000 0.0000 -13187.1749 2312.3422 0.0000 0.0000 1068.8701 -9805.9626 184.4581 -10874.8327 -9805.6509 179.8430 1966.5331 1975.8603 28437.8451 3.8056 3.8544
TCL: Running 100000 steps at 210 kelvin.
TCL: Setting parameter langevinTemp to 210
TCL: Running for 100000 steps
ETITLE: TS BOND ANGLE DIHED IMPRP ELECT VDW BOUNDARY MISC KINETIC TOTAL TEMP POTENTIAL TOTAL3 TEMPAVG PRESSURE GPRESSURE VOLUME PRESSAVG GPRESSAVG
ENERGY: 600000 0.0000 0.0000 0.0000 0.0000 -13187.1749 2312.3422 0.0000 0.0000 1068.3351 -9806.4976 184.3658 -10874.8327 -9804.8402 184.3658 1921.8266 1974.5129 28437.8451 1921.8266 1974.5129
ENERGY: 700000 0.0000 0.0000 0.0000 0.0000 -12417.6371 1918.5227 0.0000 0.0000 1188.9392 -9310.1752 205.1788 -10499.1144 -9305.6047 209.5840 190.8839 265.4790 28521.1042 3.4577 3.6269
TCL: Running 100000 steps at 240 kelvin.
TCL: Setting parameter langevinTemp to 240
TCL: Running for 100000 steps
ETITLE: TS BOND ANGLE DIHED IMPRP ELECT VDW BOUNDARY MISC KINETIC TOTAL TEMP POTENTIAL TOTAL3 TEMPAVG PRESSURE GPRESSURE VOLUME PRESSAVG GPRESSAVG
ENERGY: 700000 0.0000 0.0000 0.0000 0.0000 -12417.6371 1918.5227 0.0000 0.0000 1188.3580 -9310.7564 205.0785 -10499.1144 -9308.4825 205.0785 189.0134 267.5233 28521.1042 189.0134 267.5233
ENERGY: 800000 0.0000 0.0000 0.0000 0.0000 -11835.3213 1809.3623 0.0000 0.0000 1390.9857 -8634.9734 240.0466 -10025.9590 -8632.3721 239.5997 893.7184 911.8757 28780.3823 2.1101 1.9914
TCL: Running 100000 steps at 270 kelvin.
TCL: Setting parameter langevinTemp to 270
TCL: Running for 100000 steps
ETITLE: TS BOND ANGLE DIHED IMPRP ELECT VDW BOUNDARY MISC KINETIC TOTAL TEMP POTENTIAL TOTAL3 TEMPAVG PRESSURE GPRESSURE VOLUME PRESSAVG GPRESSAVG
ENERGY: 800000 0.0000 0.0000 0.0000 0.0000 -11835.3213 1809.3623 0.0000 0.0000 1390.3179 -8635.6412 239.9313 -10025.9590 -8633.3001 239.9313 847.5111 910.9298 28780.3823 847.5111 910.9298
ENERGY: 900000 0.0000 0.0000 0.0000 0.0000 -11209.1261 1635.5958 0.0000 0.0000 1572.8728 -8000.6575 271.4354 -9573.5303 -7997.0044 270.2232 773.2831 897.0959 29242.3559 3.8630 3.6280
TCL: Running 1000000 steps at 300 kelvin.
TCL: Setting parameter langevinTemp to 300
TCL: Running for 1000000 steps
ETITLE: TS BOND ANGLE DIHED IMPRP ELECT VDW BOUNDARY MISC KINETIC TOTAL TEMP POTENTIAL TOTAL3 TEMPAVG PRESSURE GPRESSURE VOLUME PRESSAVG GPRESSAVG
ENERGY: 900000 0.0000 0.0000 0.0000 0.0000 -11209.1261 1635.5958 0.0000 0.0000 1572.1131 -8001.4171 271.3043 -9573.5303 -7999.4732 271.3043 810.6192 897.3685 29242.3559 810.6192 897.3685
ENERGY: 1100000 0.0000 0.0000 0.0000 0.0000 -10602.9920 1365.3661 0.0000 0.0000 1784.7847 -7452.8411 308.0057 -9237.6259 -7449.3442 300.4977 -688.1201 -574.2662 30327.8509 1.8530 1.8231
ENERGY: 1300000 0.0000 0.0000 0.0000 0.0000 -10793.7338 1477.7862 0.0000 0.0000 1678.5022 -7637.4454 289.6642 -9315.9476 -7631.5468 300.1344 69.7849 166.1675 29868.4057 3.0171 3.3103
ENERGY: 1500000 0.0000 0.0000 0.0000 0.0000 -10620.2737 1446.0488 0.0000 0.0000 1731.9833 -7442.2415 298.8936 -9174.2249 -7437.8357 300.1449 230.6376 323.4236 30241.0385 3.3814 3.4781
ENERGY: 1700000 0.0000 0.0000 0.0000 0.0000 -10568.1076 1327.3255 0.0000 0.0000 1758.0677 -7482.7143 303.3950 -9240.7820 -7479.7751 300.4758 -740.7399 -648.7868 30160.6334 3.1901 3.1888
ENERGY: 1900000 0.0000 0.0000 0.0000 0.0000 -10620.8672 1407.9618 0.0000 0.0000 1770.0020 -7442.9034 305.4546 -9212.9054 -7440.5250 300.5050 -69.6031 -21.4402 30140.4230 3.0312 3.0224
TCL: Exiting due to exit command.
