Info: SIMULATION PARAMETERS:
Info: TIMESTEP               2
Info: NUMBER OF STEPS        0
Info: STEPS PER CYCLE        10
Info: PERIODIC CELL BASIS 1  36.592 0 0
Info: PERIODIC CELL BASIS 2  0 35.411 0
Info: PERIODIC CELL BASIS 3  0 0 33.876
Info: PERIODIC CELL CENTER   0 0 0
Info: WRAPPING WATERS AROUND PERIODIC BOUNDARIES ON OUTPUT.
Info: WRAPPING ALL CLUSTERS AROUND PERIODIC BOUNDARIES ON OUTPUT.
Info: FIRST LDB TIMESTEP     50
Info: LAST LDB TIMESTEP     -1
Info: HOM BACKGROUND SCALING 1
Info: PME BACKGROUND SCALING 1
Info: MIN ATOMS PER PATCH    40
Info: EMPTY PATCH LOAD       40 ATOMS
Info: INITIAL TEMPERATURE    300
Info: CENTER OF MASS MOVING INITIALLY? NO
Info: DIELECTRIC             1
Info: EXCLUDE                SCALED ONE-FOUR
Info: 1-4 ELECTROSTATICS SCALED BY 0.833333
Info: MODIFIED 1-4 VDW PARAMETERS WILL BE USED
Info: DCD FILENAME           mobley_7010316_equil.dcd
Info: DCD FREQUENCY          100000
Info: DCD FIRST STEP         100000
Info: DCD FILE WILL CONTAIN UNIT CELL DATA
Info: XST FILENAME           mobley_7010316_equil.xst
Info: XST FREQUENCY          100000
Info: NO VELOCITY DCD OUTPUT
Info: NO FORCE DCD OUTPUT
Info: OUTPUT FILENAME        mobley_7010316_equil
Info: BINARY OUTPUT FILES WILL BE USED
Info: RESTART FILENAME       mobley_7010316_equil.restart
Info: RESTART FREQUENCY      100000
Info: BINARY RESTART FILES WILL BE USED
Info: CUTOFF                 9
Info: PAIRLIST DISTANCE      11
Info: PAIRLIST SHRINK RATE   0.01
Info: PAIRLIST GROW RATE     0.01
Info: PAIRLIST TRIGGER       0.3
Info: PAIRLISTS PER CYCLE    2
Info: PAIRLISTS ENABLED
Info: MARGIN                 8
Info: HYDROGEN GROUP CUTOFF  2.5
Info: PATCH DIMENSION        21.5
Info: ENERGY OUTPUT STEPS    100000
Info: ENERGY EVALUATION STEPS    100000
Info: OUTPUT ENERGY PRECISION 4
Info: CROSSTERM ENERGY INCLUDED IN DIHEDRAL
Info: TIMING OUTPUT STEPS    1000000
Info: PRESSURE OUTPUT STEPS  100000
Info: FIXED ATOMS ACTIVE
Info: LANGEVIN DYNAMICS ACTIVE
Info: LANGEVIN TEMPERATURE   30
Info: LANGEVIN USING BBK INTEGRATOR
Info: LANGEVIN DAMPING COEFFICIENT IS 1 INVERSE PS
Info: LANGEVIN DYNAMICS APPLIED TO HYDROGENS
Info: LANGEVIN PISTON PRESSURE CONTROL ACTIVE
Info:        TARGET PRESSURE IS 1.01325 BAR
Info:     OSCILLATION PERIOD IS 50 FS
Info:             DECAY TIME IS 25 FS
Info:     PISTON TEMPERATURE IS 300 K
Info:       PRESSURE CONTROL IS GROUP-BASED
Info:    INITIAL STRAIN RATE IS 0 0 0
Info:       CELL FLUCTUATION IS ISOTROPIC
Info: PARTICLE MESH EWALD (PME) ACTIVE
Info: PME TOLERANCE               1e-06
Info: PME EWALD COEFFICIENT       0.348832
Info: PME INTERPOLATION ORDER     4
Info: PME GRID DIMENSIONS         40 36 36
Info: PME MAXIMUM GRID SPACING    1
Info: FULL ELECTROSTATIC EVALUATION FREQUENCY      2
Info: USING VERLET I (r-RESPA) MTS SCHEME.
Info: C1 SPLITTING OF LONG RANGE ELECTROSTATICS
Info: PLACING ATOMS IN PATCHES BY HYDROGEN GROUPS
Info: RIGID BONDS TO HYDROGEN : ALL
Info:         ERROR TOLERANCE : 1e-08
Info:          MAX ITERATIONS : 100
Info: RIGID WATER USING SETTLE ALGORITHM
Info: RANDOM NUMBER SEED     1744678528
Info: USE HYDROGEN BONDS?    NO
Info: Using AMBER format force field!
Info: AMBER PARM FILE        mobley_7010316.prmtop
Info: COORDINATE PDB         mobley_7010316.pdb
Info: Exclusions will be read from PARM file!
Info: SCNB (VDW SCALING)     2
Info: USING ARITHMETIC MEAN TO COMBINE L-J SIGMA PARAMETERS
Info: BINARY COORDINATES     mobley_7010316_min.coor
Info: SUMMARY OF PARAMETERS:
Info: 7 BONDS
Info: 7 ANGLES
Info:   7 HARMONIC
Info:   0 COSINE-BASED
Info: 9 DIHEDRAL
Info: 0 IMPROPER
Info: 0 CROSSTERM
Info: 0 VDW
Info: 21 VDW_PAIRS
Info: 0 NBTHOLE_PAIRS
Info: STRUCTURE SUMMARY:
Info: 2920 ATOMS
Info: 2920 BONDS
Info: 37 ANGLES
Info: 75 DIHEDRALS
Info: 0 IMPROPERS
Info: 0 CROSSTERMS
Info: 3011 EXCLUSIONS
Info: 19 FIXED ATOMS
Info: 2913 RIGID BONDS
Info: 12 RIGID BONDS BETWEEN FIXED ATOMS
Info: 5802 DEGREES OF FREEDOM
Info: 974 HYDROGEN GROUPS
Info: 3 ATOMS IN LARGEST HYDROGEN GROUP
Info: 974 MIGRATION GROUPS
Info: 3 ATOMS IN LARGEST MIGRATION GROUP
Info: 7 HYDROGEN GROUPS WITH ALL ATOMS FIXED
Info: TOTAL MASS = 17521.6 amu
Info: TOTAL CHARGE = -4.47035e-08 e
Info: MASS DENSITY = 0.662853 g/cm^3
Info: ATOM DENSITY = 0.0665222 atoms/A^3
Info: ADDED 0 IMPLICIT EXCLUSIONS
Info: NONBONDED TABLE R-SQUARED SPACING: 0.0625
Info: NONBONDED TABLE SIZE: 705 POINTS
Info: REMOVING COM VELOCITY -0.141385 -0.0866133 0.0510104
TCL: Running for 100000 steps
ETITLE: TS BOND ANGLE DIHED IMPRP ELECT VDW BOUNDARY MISC KINETIC TOTAL TEMP POTENTIAL TOTAL3 TEMPAVG PRESSURE GPRESSURE VOLUME PRESSAVG GPRESSAVG
ENERGY: 0 0.0000 0.0000 0.0000 0.0000 -13528.0282 2384.7392 0.0000 0.0000 1750.1009 -9393.1880 303.5818 -11143.2890 -9392.8326 303.5818 492.7874 527.5922 43895.1425 492.7874 527.5922
ENERGY: 100000 0.0000 0.0000 0.0000 0.0000 -14280.6687 2609.8963 0.0000 0.0000 173.0750 -11497.6974 30.0225 -11670.7724 -11497.2545 30.9174 1226.5298 1297.1645 28288.8729 4.3942 4.4053
TCL: Running 100000 steps at 60 kelvin.
TCL: Setting parameter langevinTemp to 60
TCL: Running for 100000 steps
ETITLE: TS BOND ANGLE DIHED IMPRP ELECT VDW BOUNDARY MISC KINETIC TOTAL TEMP POTENTIAL TOTAL3 TEMPAVG PRESSURE GPRESSURE VOLUME PRESSAVG GPRESSAVG
ENERGY: 100000 0.0000 0.0000 0.0000 0.0000 -14280.6687 2609.8963 0.0000 0.0000 172.9908 -11497.7815 30.0079 -11670.7724 -11497.4573 30.0079 1233.8264 1297.1861 28288.8729 1233.8264 1297.1861
ENERGY: 200000 0.0000 0.0000 0.0000 0.0000 -14009.7219 2416.3707 0.0000 0.0000 350.8862 -11242.4650 60.8666 -11593.3512 -11241.5913 60.0636 -90.9708 -56.1358 28588.8618 3.8109 3.7974
TCL: Running 100000 steps at 90 kelvin.
TCL: Setting parameter langevinTemp to 90
TCL: Running for 100000 steps
ETITLE: TS BOND ANGLE DIHED IMPRP ELECT VDW BOUNDARY MISC KINETIC TOTAL TEMP POTENTIAL TOTAL3 TEMPAVG PRESSURE GPRESSURE VOLUME PRESSAVG GPRESSAVG
ENERGY: 200000 0.0000 0.0000 0.0000 0.0000 -14009.7219 2416.3707 0.0000 0.0000 350.7129 -11242.6383 60.8365 -11593.3512 -11241.7928 60.8365 -117.3642 -56.0728 28588.8618 -117.3642 -56.0728
ENERGY: 300000 0.0000 0.0000 0.0000 0.0000 -13892.9684 2396.6163 0.0000 0.0000 524.0393 -10972.3129 90.9026 -11496.3522 -10971.5717 90.0988 216.8441 265.9355 28572.8177 3.3343 3.3353
TCL: Running 100000 steps at 120 kelvin.
TCL: Setting parameter langevinTemp to 120
TCL: Running for 100000 steps
ETITLE: TS BOND ANGLE DIHED IMPRP ELECT VDW BOUNDARY MISC KINETIC TOTAL TEMP POTENTIAL TOTAL3 TEMPAVG PRESSURE GPRESSURE VOLUME PRESSAVG GPRESSAVG
ENERGY: 300000 0.0000 0.0000 0.0000 0.0000 -13892.9684 2396.6163 0.0000 0.0000 523.7791 -10972.5731 90.8575 -11496.3522 -10971.4462 90.8575 213.3789 265.6069 28572.8177 213.3789 265.6069
ENERGY: 400000 0.0000 0.0000 0.0000 0.0000 -13610.3123 2249.0509 0.0000 0.0000 675.7361 -10685.5253 117.2168 -11361.2614 -10683.4555 119.8225 -580.6671 -539.5322 28715.6620 4.0733 4.1158
TCL: Running 100000 steps at 150 kelvin.
TCL: Setting parameter langevinTemp to 150
TCL: Running for 100000 steps
ETITLE: TS BOND ANGLE DIHED IMPRP ELECT VDW BOUNDARY MISC KINETIC TOTAL TEMP POTENTIAL TOTAL3 TEMPAVG PRESSURE GPRESSURE VOLUME PRESSAVG GPRESSAVG
ENERGY: 400000 0.0000 0.0000 0.0000 0.0000 -13610.3123 2249.0509 0.0000 0.0000 675.3973 -10685.8641 117.1580 -11361.2614 -10684.6466 117.1580 -583.1489 -538.9791 28715.6620 -583.1489 -538.9791
ENERGY: 500000 0.0000 0.0000 0.0000 0.0000 -13458.3265 2248.7553 0.0000 0.0000 877.8114 -10331.7599 152.2698 -11209.5712 -10329.8529 150.0497 240.9547 333.1905 28410.4378 3.5145 3.4134
TCL: Running 100000 steps at 180 kelvin.
TCL: Setting parameter langevinTemp to 180
TCL: Running for 100000 steps
ETITLE: TS BOND ANGLE DIHED IMPRP ELECT VDW BOUNDARY MISC KINETIC TOTAL TEMP POTENTIAL TOTAL3 TEMPAVG PRESSURE GPRESSURE VOLUME PRESSAVG GPRESSAVG
ENERGY: 500000 0.0000 0.0000 0.0000 0.0000 -13458.3265 2248.7553 0.0000 0.0000 877.3678 -10332.2034 152.1929 -11209.5712 -10330.3054 152.1929 262.2249 332.6730 28410.4378 262.2249 332.6730
ENERGY: 600000 0.0000 0.0000 0.0000 0.0000 -12925.5049 2067.0146 0.0000 0.0000 1036.5608 -9821.9295 179.8074 -10858.4903 -9818.6873 179.8513 10.9244 115.9680 28483.9342 3.0000 2.8865
TCL: Running 100000 steps at 210 kelvin.
TCL: Setting parameter langevinTemp to 210
TCL: Running for 100000 steps
ETITLE: TS BOND ANGLE DIHED IMPRP ELECT VDW BOUNDARY MISC KINETIC TOTAL TEMP POTENTIAL TOTAL3 TEMPAVG PRESSURE GPRESSURE VOLUME PRESSAVG GPRESSAVG
ENERGY: 600000 0.0000 0.0000 0.0000 0.0000 -12925.5049 2067.0146 0.0000 0.0000 1036.0444 -9822.4459 179.7178 -10858.4903 -9820.5205 179.7178 38.7692 116.3855 28483.9342 38.7692 116.3855
ENERGY: 700000 0.0000 0.0000 0.0000 0.0000 -12282.7771 1853.4469 0.0000 0.0000 1172.2602 -9257.0699 203.3465 -10429.3301 -9253.7246 209.7678 -468.8221 -412.1808 28965.7647 5.2591 5.4603
TCL: Running 100000 steps at 240 kelvin.
TCL: Setting parameter langevinTemp to 240
TCL: Running for 100000 steps
ETITLE: TS BOND ANGLE DIHED IMPRP ELECT VDW BOUNDARY MISC KINETIC TOTAL TEMP POTENTIAL TOTAL3 TEMPAVG PRESSURE GPRESSURE VOLUME PRESSAVG GPRESSAVG
ENERGY: 700000 0.0000 0.0000 0.0000 0.0000 -12282.7771 1853.4469 0.0000 0.0000 1171.6508 -9257.6793 203.2408 -10429.3301 -9255.8591 203.2408 -484.1396 -411.1161 28965.7647 -484.1396 -411.1161
ENERGY: 800000 0.0000 0.0000 0.0000 0.0000 -11819.2193 1761.0658 0.0000 0.0000 1426.9013 -8631.2522 247.5179 -10058.1535 -8629.0022 240.5228 470.8143 532.2817 28491.6294 3.8773 3.7108
TCL: Running 100000 steps at 270 kelvin.
TCL: Setting parameter langevinTemp to 270
TCL: Running for 100000 steps
ETITLE: TS BOND ANGLE DIHED IMPRP ELECT VDW BOUNDARY MISC KINETIC TOTAL TEMP POTENTIAL TOTAL3 TEMPAVG PRESSURE GPRESSURE VOLUME PRESSAVG GPRESSAVG
ENERGY: 800000 0.0000 0.0000 0.0000 0.0000 -11819.2193 1761.0658 0.0000 0.0000 1426.2238 -8631.9297 247.4004 -10058.1535 -8630.0510 247.4004 454.4144 533.8151 28491.6294 454.4144 533.8151
ENERGY: 900000 0.0000 0.0000 0.0000 0.0000 -11106.2456 1541.9654 0.0000 0.0000 1522.1668 -8042.1135 264.0431 -9564.2803 -8039.0955 269.1666 1.8658 68.0790 29119.1533 3.4318 3.4244
TCL: Running 1000000 steps at 300 kelvin.
TCL: Setting parameter langevinTemp to 300
TCL: Running for 1000000 steps
ETITLE: TS BOND ANGLE DIHED IMPRP ELECT VDW BOUNDARY MISC KINETIC TOTAL TEMP POTENTIAL TOTAL3 TEMPAVG PRESSURE GPRESSURE VOLUME PRESSAVG GPRESSAVG
ENERGY: 900000 0.0000 0.0000 0.0000 0.0000 -11106.2456 1541.9654 0.0000 0.0000 1521.3760 -8042.9043 263.9060 -9564.2803 -8039.9685 263.9060 -4.3641 68.0506 29119.1533 -4.3641 68.0506
ENERGY: 1100000 0.0000 0.0000 0.0000 0.0000 -10692.2163 1454.0522 0.0000 0.0000 1698.4103 -7539.7538 294.6153 -9238.1640 -7537.7687 300.3919 194.6698 290.4828 30040.5192 2.8329 2.7966
ENERGY: 1300000 0.0000 0.0000 0.0000 0.0000 -10495.5686 1349.2293 0.0000 0.0000 1707.0541 -7439.2852 296.1147 -9146.3393 -7437.0034 300.2438 -503.5231 -506.1181 30509.0788 4.7158 4.5722
ENERGY: 1500000 0.0000 0.0000 0.0000 0.0000 -10475.6244 1358.5764 0.0000 0.0000 1753.8359 -7363.2121 304.2297 -9117.0480 -7361.5474 301.0150 -244.8246 -93.0812 30028.2410 3.3272 3.2478
ENERGY: 1700000 0.0000 0.0000 0.0000 0.0000 -10658.5551 1512.5542 0.0000 0.0000 1697.3866 -7448.6144 294.4377 -9146.0010 -7446.0837 300.7310 1018.0592 1163.0530 29619.9195 4.1844 4.0589
ENERGY: 1900000 0.0000 0.0000 0.0000 0.0000 -10502.8452 1348.6297 0.0000 0.0000 1705.0871 -7449.1284 295.7735 -9154.2155 -7445.7928 299.9861 -698.6310 -653.9062 30642.6570 3.9564 3.8382
TCL: Exiting due to exit command.
