Info: SIMULATION PARAMETERS:
Info: TIMESTEP               2
Info: NUMBER OF STEPS        0
Info: STEPS PER CYCLE        10
Info: PERIODIC CELL BASIS 1  36.592 0 0
Info: PERIODIC CELL BASIS 2  0 36.762 0
Info: PERIODIC CELL BASIS 3  0 0 33.876
Info: PERIODIC CELL CENTER   0 0 0
Info: WRAPPING WATERS AROUND PERIODIC BOUNDARIES ON OUTPUT.
Info: WRAPPING ALL CLUSTERS AROUND PERIODIC BOUNDARIES ON OUTPUT.
Info: FIRST LDB TIMESTEP     50
Info: LAST LDB TIMESTEP     -1
Info: HOM BACKGROUND SCALING 1
Info: PME BACKGROUND SCALING 1
Info: MIN ATOMS PER PATCH    40
Info: EMPTY PATCH LOAD       40 ATOMS
Info: INITIAL TEMPERATURE    300
Info: CENTER OF MASS MOVING INITIALLY? NO
Info: DIELECTRIC             1
Info: EXCLUDE                SCALED ONE-FOUR
Info: 1-4 ELECTROSTATICS SCALED BY 0.833333
Info: MODIFIED 1-4 VDW PARAMETERS WILL BE USED
Info: DCD FILENAME           mobley_2972906_equil.dcd
Info: DCD FREQUENCY          100000
Info: DCD FIRST STEP         100000
Info: DCD FILE WILL CONTAIN UNIT CELL DATA
Info: XST FILENAME           mobley_2972906_equil.xst
Info: XST FREQUENCY          100000
Info: NO VELOCITY DCD OUTPUT
Info: NO FORCE DCD OUTPUT
Info: OUTPUT FILENAME        mobley_2972906_equil
Info: BINARY OUTPUT FILES WILL BE USED
Info: RESTART FILENAME       mobley_2972906_equil.restart
Info: RESTART FREQUENCY      100000
Info: BINARY RESTART FILES WILL BE USED
Info: CUTOFF                 9
Info: PAIRLIST DISTANCE      11
Info: PAIRLIST SHRINK RATE   0.01
Info: PAIRLIST GROW RATE     0.01
Info: PAIRLIST TRIGGER       0.3
Info: PAIRLISTS PER CYCLE    2
Info: PAIRLISTS ENABLED
Info: MARGIN                 8
Info: HYDROGEN GROUP CUTOFF  2.5
Info: PATCH DIMENSION        21.5
Info: ENERGY OUTPUT STEPS    100000
Info: ENERGY EVALUATION STEPS    100000
Info: OUTPUT ENERGY PRECISION 4
Info: CROSSTERM ENERGY INCLUDED IN DIHEDRAL
Info: TIMING OUTPUT STEPS    1000000
Info: PRESSURE OUTPUT STEPS  100000
Info: FIXED ATOMS ACTIVE
Info: LANGEVIN DYNAMICS ACTIVE
Info: LANGEVIN TEMPERATURE   30
Info: LANGEVIN USING BBK INTEGRATOR
Info: LANGEVIN DAMPING COEFFICIENT IS 1 INVERSE PS
Info: LANGEVIN DYNAMICS APPLIED TO HYDROGENS
Info: LANGEVIN PISTON PRESSURE CONTROL ACTIVE
Info:        TARGET PRESSURE IS 1.01325 BAR
Info:     OSCILLATION PERIOD IS 50 FS
Info:             DECAY TIME IS 25 FS
Info:     PISTON TEMPERATURE IS 300 K
Info:       PRESSURE CONTROL IS GROUP-BASED
Info:    INITIAL STRAIN RATE IS 0 0 0
Info:       CELL FLUCTUATION IS ISOTROPIC
Info: PARTICLE MESH EWALD (PME) ACTIVE
Info: PME TOLERANCE               1e-06
Info: PME EWALD COEFFICIENT       0.348832
Info: PME INTERPOLATION ORDER     4
Info: PME GRID DIMENSIONS         40 40 36
Info: PME MAXIMUM GRID SPACING    1
Info: FULL ELECTROSTATIC EVALUATION FREQUENCY      2
Info: USING VERLET I (r-RESPA) MTS SCHEME.
Info: C1 SPLITTING OF LONG RANGE ELECTROSTATICS
Info: PLACING ATOMS IN PATCHES BY HYDROGEN GROUPS
Info: RIGID BONDS TO HYDROGEN : ALL
Info:         ERROR TOLERANCE : 1e-08
Info:          MAX ITERATIONS : 100
Info: RIGID WATER USING SETTLE ALGORITHM
Info: RANDOM NUMBER SEED     1743674509
Info: USE HYDROGEN BONDS?    NO
Info: Using AMBER format force field!
Info: AMBER PARM FILE        mobley_2972906.prmtop
Info: COORDINATE PDB         mobley_2972906.pdb
Info: Exclusions will be read from PARM file!
Info: SCNB (VDW SCALING)     2
Info: USING ARITHMETIC MEAN TO COMBINE L-J SIGMA PARAMETERS
Info: BINARY COORDINATES     mobley_2972906_min.coor
Info: SUMMARY OF PARAMETERS:
Info: 7 BONDS
Info: 7 ANGLES
Info:   7 HARMONIC
Info:   0 COSINE-BASED
Info: 3 DIHEDRAL
Info: 0 IMPROPER
Info: 0 CROSSTERM
Info: 0 VDW
Info: 21 VDW_PAIRS
Info: 0 NBTHOLE_PAIRS
Info: STRUCTURE SUMMARY:
Info: 2949 ATOMS
Info: 2949 BONDS
Info: 13 ANGLES
Info: 20 DIHEDRALS
Info: 0 IMPROPERS
Info: 0 CROSSTERMS
Info: 2973 EXCLUSIONS
Info: 9 FIXED ATOMS
Info: 2944 RIGID BONDS
Info: 4 RIGID BONDS BETWEEN FIXED ATOMS
Info: 5880 DEGREES OF FREEDOM
Info: 985 HYDROGEN GROUPS
Info: 3 ATOMS IN LARGEST HYDROGEN GROUP
Info: 985 MIGRATION GROUPS
Info: 3 ATOMS IN LARGEST MIGRATION GROUP
Info: 5 HYDROGEN GROUPS WITH ALL ATOMS FIXED
Info: TOTAL MASS = 17739.8 amu
Info: TOTAL CHARGE = -0.000100012 e
Info: MASS DENSITY = 0.646444 g/cm^3
Info: ATOM DENSITY = 0.0647139 atoms/A^3
Info: ADDED 0 IMPLICIT EXCLUSIONS
Info: NONBONDED TABLE R-SQUARED SPACING: 0.0625
Info: NONBONDED TABLE SIZE: 705 POINTS
Info: REMOVING COM VELOCITY -0.0466186 -0.23667 0.0804366
TCL: Running for 100000 steps
ETITLE: TS BOND ANGLE DIHED IMPRP ELECT VDW BOUNDARY MISC KINETIC TOTAL TEMP POTENTIAL TOTAL3 TEMPAVG PRESSURE GPRESSURE VOLUME PRESSAVG GPRESSAVG
ENERGY: 0 0.0000 0.0000 0.0000 0.0000 -13643.4191 2408.0988 0.0000 0.0000 1737.7975 -9497.5229 297.4488 -11235.3203 -9497.1872 297.4488 499.1405 529.4632 45569.8293 499.1405 529.4632
ENERGY: 100000 0.0000 0.0000 0.0000 0.0000 -14274.6553 2535.0895 0.0000 0.0000 174.0801 -11565.4858 29.7963 -11739.5659 -11565.1065 30.9085 575.3661 633.7859 28666.4902 4.0815 4.0671
TCL: Running 100000 steps at 60 kelvin.
TCL: Setting parameter langevinTemp to 60
TCL: Running for 100000 steps
ETITLE: TS BOND ANGLE DIHED IMPRP ELECT VDW BOUNDARY MISC KINETIC TOTAL TEMP POTENTIAL TOTAL3 TEMPAVG PRESSURE GPRESSURE VOLUME PRESSAVG GPRESSAVG
ENERGY: 100000 0.0000 0.0000 0.0000 0.0000 -14274.6553 2535.0895 0.0000 0.0000 173.9959 -11565.5699 29.7819 -11739.5659 -11565.1666 29.7819 582.7756 633.8240 28666.4902 582.7756 633.8240
ENERGY: 200000 0.0000 0.0000 0.0000 0.0000 -14051.0942 2390.0063 0.0000 0.0000 348.5182 -11312.5698 59.6539 -11661.0880 -11311.4290 59.9761 -447.8549 -391.4870 29020.9044 3.1968 3.1862
TCL: Running 100000 steps at 90 kelvin.
TCL: Setting parameter langevinTemp to 90
TCL: Running for 100000 steps
ETITLE: TS BOND ANGLE DIHED IMPRP ELECT VDW BOUNDARY MISC KINETIC TOTAL TEMP POTENTIAL TOTAL3 TEMPAVG PRESSURE GPRESSURE VOLUME PRESSAVG GPRESSAVG
ENERGY: 200000 0.0000 0.0000 0.0000 0.0000 -14051.0942 2390.0063 0.0000 0.0000 348.3448 -11312.7431 59.6242 -11661.0880 -11312.0281 59.6242 -462.6459 -391.3145 29020.9044 -462.6459 -391.3145
ENERGY: 300000 0.0000 0.0000 0.0000 0.0000 -14133.8588 2521.9644 0.0000 0.0000 533.5023 -11078.3922 91.3165 -11611.8945 -11077.5032 89.9273 1026.7723 1085.8348 28518.2509 4.6007 4.5204
TCL: Running 100000 steps at 120 kelvin.
TCL: Setting parameter langevinTemp to 120
TCL: Running for 100000 steps
ETITLE: TS BOND ANGLE DIHED IMPRP ELECT VDW BOUNDARY MISC KINETIC TOTAL TEMP POTENTIAL TOTAL3 TEMPAVG PRESSURE GPRESSURE VOLUME PRESSAVG GPRESSAVG
ENERGY: 300000 0.0000 0.0000 0.0000 0.0000 -14133.8588 2521.9644 0.0000 0.0000 533.2383 -11078.6562 91.2713 -11611.8945 -11077.7690 91.2713 1044.9646 1085.1703 28518.2509 1044.9646 1085.1703
ENERGY: 400000 0.0000 0.0000 0.0000 0.0000 -13780.2078 2309.3491 0.0000 0.0000 728.8693 -10741.9894 124.7564 -11470.8587 -10740.6792 120.0876 -282.4996 -195.9858 28986.0605 4.6457 4.7366
TCL: Running 100000 steps at 150 kelvin.
TCL: Setting parameter langevinTemp to 150
TCL: Running for 100000 steps
ETITLE: TS BOND ANGLE DIHED IMPRP ELECT VDW BOUNDARY MISC KINETIC TOTAL TEMP POTENTIAL TOTAL3 TEMPAVG PRESSURE GPRESSURE VOLUME PRESSAVG GPRESSAVG
ENERGY: 400000 0.0000 0.0000 0.0000 0.0000 -13780.2078 2309.3491 0.0000 0.0000 728.5275 -10742.3312 124.6979 -11470.8587 -10740.6841 124.6979 -240.9747 -196.7643 28986.0605 -240.9747 -196.7643
ENERGY: 500000 0.0000 0.0000 0.0000 0.0000 -13512.9841 2203.5012 0.0000 0.0000 875.7352 -10433.7477 149.8946 -11309.4829 -10431.8692 150.0154 -627.1870 -583.9206 29135.2522 3.7253 3.5155
TCL: Running 100000 steps at 180 kelvin.
TCL: Setting parameter langevinTemp to 180
TCL: Running for 100000 steps
ETITLE: TS BOND ANGLE DIHED IMPRP ELECT VDW BOUNDARY MISC KINETIC TOTAL TEMP POTENTIAL TOTAL3 TEMPAVG PRESSURE GPRESSURE VOLUME PRESSAVG GPRESSAVG
ENERGY: 500000 0.0000 0.0000 0.0000 0.0000 -13512.9841 2203.5012 0.0000 0.0000 875.2995 -10434.1834 149.8200 -11309.4829 -10431.9422 149.8200 -633.1592 -584.6329 29135.2522 -633.1592 -584.6329
ENERGY: 600000 0.0000 0.0000 0.0000 0.0000 -13071.6062 2026.7260 0.0000 0.0000 1082.6913 -9962.1889 185.3180 -11044.8802 -9959.4044 179.8006 -836.0077 -810.8246 28895.7004 4.3744 4.3773
TCL: Running 100000 steps at 210 kelvin.
TCL: Setting parameter langevinTemp to 210
TCL: Running for 100000 steps
ETITLE: TS BOND ANGLE DIHED IMPRP ELECT VDW BOUNDARY MISC KINETIC TOTAL TEMP POTENTIAL TOTAL3 TEMPAVG PRESSURE GPRESSURE VOLUME PRESSAVG GPRESSAVG
ENERGY: 600000 0.0000 0.0000 0.0000 0.0000 -13071.6062 2026.7260 0.0000 0.0000 1082.1432 -9962.7370 185.2242 -11044.8802 -9960.6000 185.2242 -877.6863 -810.8597 28895.7004 -877.6863 -810.8597
ENERGY: 700000 0.0000 0.0000 0.0000 0.0000 -12359.6986 1838.2523 0.0000 0.0000 1224.4843 -9296.9620 209.5879 -10521.4463 -9292.3765 209.8411 -486.3728 -421.0009 28793.6534 2.7696 2.8273
TCL: Running 100000 steps at 240 kelvin.
TCL: Setting parameter langevinTemp to 240
TCL: Running for 100000 steps
ETITLE: TS BOND ANGLE DIHED IMPRP ELECT VDW BOUNDARY MISC KINETIC TOTAL TEMP POTENTIAL TOTAL3 TEMPAVG PRESSURE GPRESSURE VOLUME PRESSAVG GPRESSAVG
ENERGY: 700000 0.0000 0.0000 0.0000 0.0000 -12359.6986 1838.2523 0.0000 0.0000 1223.8836 -9297.5627 209.4851 -10521.4463 -9295.2493 209.4851 -508.1804 -420.2101 28793.6534 -508.1804 -420.2101
ENERGY: 800000 0.0000 0.0000 0.0000 0.0000 -11657.2101 1622.9417 0.0000 0.0000 1395.7822 -8638.4862 238.9080 -10034.2684 -8635.9584 240.2162 -625.3974 -492.3718 29226.7515 2.3387 2.2823
TCL: Running 100000 steps at 270 kelvin.
TCL: Setting parameter langevinTemp to 270
TCL: Running for 100000 steps
ETITLE: TS BOND ANGLE DIHED IMPRP ELECT VDW BOUNDARY MISC KINETIC TOTAL TEMP POTENTIAL TOTAL3 TEMPAVG PRESSURE GPRESSURE VOLUME PRESSAVG GPRESSAVG
ENERGY: 800000 0.0000 0.0000 0.0000 0.0000 -11657.2101 1622.9417 0.0000 0.0000 1395.0698 -8639.1986 238.7861 -10034.2684 -8636.6458 238.7861 -572.3451 -492.2555 29226.7515 -572.3451 -492.2555
ENERGY: 900000 0.0000 0.0000 0.0000 0.0000 -11125.9570 1462.2298 0.0000 0.0000 1580.2355 -8083.4917 270.4798 -9663.7272 -8079.3007 269.6848 -1134.6393 -1047.5792 30141.7948 2.8938 2.8767
TCL: Running 1000000 steps at 300 kelvin.
TCL: Setting parameter langevinTemp to 300
TCL: Running for 1000000 steps
ETITLE: TS BOND ANGLE DIHED IMPRP ELECT VDW BOUNDARY MISC KINETIC TOTAL TEMP POTENTIAL TOTAL3 TEMPAVG PRESSURE GPRESSURE VOLUME PRESSAVG GPRESSAVG
ENERGY: 900000 0.0000 0.0000 0.0000 0.0000 -11125.9570 1462.2298 0.0000 0.0000 1579.4638 -8084.2633 270.3477 -9663.7272 -8081.0801 270.3477 -1131.0080 -1046.4044 30141.7948 -1131.0080 -1046.4044
ENERGY: 1100000 0.0000 0.0000 0.0000 0.0000 -10799.5892 1448.4844 0.0000 0.0000 1749.1830 -7601.9218 299.3976 -9351.1048 -7597.7051 300.4678 106.0898 138.6738 30044.7337 3.8623 3.5975
ENERGY: 1300000 0.0000 0.0000 0.0000 0.0000 -10635.8156 1402.2700 0.0000 0.0000 1757.6387 -7475.9069 300.8449 -9233.5456 -7472.3436 300.6319 -460.4056 -315.2910 30859.2800 2.9794 3.1257
ENERGY: 1500000 0.0000 0.0000 0.0000 0.0000 -10684.2770 1438.2792 0.0000 0.0000 1817.2961 -7428.7017 311.0561 -9245.9978 -7425.0092 300.1325 -83.6264 -13.2580 30674.9473 3.7065 3.7243
ENERGY: 1700000 0.0000 0.0000 0.0000 0.0000 -10544.1187 1324.3132 0.0000 0.0000 1712.7135 -7507.0919 293.1553 -9219.8055 -7503.1845 300.0021 -727.9024 -645.5084 30353.5724 2.8807 2.9567
ENERGY: 1900000 0.0000 0.0000 0.0000 0.0000 -10590.8138 1337.7260 0.0000 0.0000 1795.7007 -7457.3872 307.3598 -9253.0879 -7453.1567 299.5585 -655.9359 -611.7842 30461.8390 2.4387 2.4326
TCL: Exiting due to exit command.
