Info: SIMULATION PARAMETERS:
Info: TIMESTEP               2
Info: NUMBER OF STEPS        0
Info: STEPS PER CYCLE        10
Info: PERIODIC CELL BASIS 1  38.861 0 0
Info: PERIODIC CELL BASIS 2  0 35.847 0
Info: PERIODIC CELL BASIS 3  0 0 31.349
Info: PERIODIC CELL CENTER   0 0 0
Info: WRAPPING WATERS AROUND PERIODIC BOUNDARIES ON OUTPUT.
Info: WRAPPING ALL CLUSTERS AROUND PERIODIC BOUNDARIES ON OUTPUT.
Info: FIRST LDB TIMESTEP     50
Info: LAST LDB TIMESTEP     -1
Info: HOM BACKGROUND SCALING 1
Info: PME BACKGROUND SCALING 1
Info: MIN ATOMS PER PATCH    40
Info: EMPTY PATCH LOAD       40 ATOMS
Info: INITIAL TEMPERATURE    300
Info: CENTER OF MASS MOVING INITIALLY? NO
Info: DIELECTRIC             1
Info: EXCLUDE                SCALED ONE-FOUR
Info: 1-4 ELECTROSTATICS SCALED BY 0.833333
Info: MODIFIED 1-4 VDW PARAMETERS WILL BE USED
Info: DCD FILENAME           mobley_3663158_equil.dcd
Info: DCD FREQUENCY          100000
Info: DCD FIRST STEP         100000
Info: DCD FILE WILL CONTAIN UNIT CELL DATA
Info: XST FILENAME           mobley_3663158_equil.xst
Info: XST FREQUENCY          100000
Info: NO VELOCITY DCD OUTPUT
Info: NO FORCE DCD OUTPUT
Info: OUTPUT FILENAME        mobley_3663158_equil
Info: BINARY OUTPUT FILES WILL BE USED
Info: RESTART FILENAME       mobley_3663158_equil.restart
Info: RESTART FREQUENCY      100000
Info: BINARY RESTART FILES WILL BE USED
Info: CUTOFF                 9
Info: PAIRLIST DISTANCE      11
Info: PAIRLIST SHRINK RATE   0.01
Info: PAIRLIST GROW RATE     0.01
Info: PAIRLIST TRIGGER       0.3
Info: PAIRLISTS PER CYCLE    2
Info: PAIRLISTS ENABLED
Info: MARGIN                 8
Info: HYDROGEN GROUP CUTOFF  2.5
Info: PATCH DIMENSION        21.5
Info: ENERGY OUTPUT STEPS    100000
Info: ENERGY EVALUATION STEPS    100000
Info: OUTPUT ENERGY PRECISION 4
Info: CROSSTERM ENERGY INCLUDED IN DIHEDRAL
Info: TIMING OUTPUT STEPS    1000000
Info: PRESSURE OUTPUT STEPS  100000
Info: FIXED ATOMS ACTIVE
Info: LANGEVIN DYNAMICS ACTIVE
Info: LANGEVIN TEMPERATURE   30
Info: LANGEVIN USING BBK INTEGRATOR
Info: LANGEVIN DAMPING COEFFICIENT IS 1 INVERSE PS
Info: LANGEVIN DYNAMICS APPLIED TO HYDROGENS
Info: LANGEVIN PISTON PRESSURE CONTROL ACTIVE
Info:        TARGET PRESSURE IS 1.01325 BAR
Info:     OSCILLATION PERIOD IS 50 FS
Info:             DECAY TIME IS 25 FS
Info:     PISTON TEMPERATURE IS 300 K
Info:       PRESSURE CONTROL IS GROUP-BASED
Info:    INITIAL STRAIN RATE IS 0 0 0
Info:       CELL FLUCTUATION IS ISOTROPIC
Info: PARTICLE MESH EWALD (PME) ACTIVE
Info: PME TOLERANCE               1e-06
Info: PME EWALD COEFFICIENT       0.348832
Info: PME INTERPOLATION ORDER     4
Info: PME GRID DIMENSIONS         40 36 32
Info: PME MAXIMUM GRID SPACING    1
Info: FULL ELECTROSTATIC EVALUATION FREQUENCY      2
Info: USING VERLET I (r-RESPA) MTS SCHEME.
Info: C1 SPLITTING OF LONG RANGE ELECTROSTATICS
Info: PLACING ATOMS IN PATCHES BY HYDROGEN GROUPS
Info: RIGID BONDS TO HYDROGEN : ALL
Info:         ERROR TOLERANCE : 1e-08
Info:          MAX ITERATIONS : 100
Info: RIGID WATER USING SETTLE ALGORITHM
Info: RANDOM NUMBER SEED     1743742982
Info: USE HYDROGEN BONDS?    NO
Info: Using AMBER format force field!
Info: AMBER PARM FILE        mobley_3663158.prmtop
Info: COORDINATE PDB         mobley_3663158.pdb
Info: Exclusions will be read from PARM file!
Info: SCNB (VDW SCALING)     2
Info: USING ARITHMETIC MEAN TO COMBINE L-J SIGMA PARAMETERS
Info: BINARY COORDINATES     mobley_3663158_min.coor
Info: SUMMARY OF PARAMETERS:
Info: 6 BONDS
Info: 4 ANGLES
Info:   4 HARMONIC
Info:   0 COSINE-BASED
Info: 3 DIHEDRAL
Info: 0 IMPROPER
Info: 0 CROSSTERM
Info: 0 VDW
Info: 15 VDW_PAIRS
Info: 0 NBTHOLE_PAIRS
Info: STRUCTURE SUMMARY:
Info: 2968 ATOMS
Info: 2969 BONDS
Info: 31 ANGLES
Info: 56 DIHEDRALS
Info: 0 IMPROPERS
Info: 0 CROSSTERMS
Info: 3040 EXCLUSIONS
Info: 19 FIXED ATOMS
Info: 2957 RIGID BONDS
Info: 8 RIGID BONDS BETWEEN FIXED ATOMS
Info: 5898 DEGREES OF FREEDOM
Info: 994 HYDROGEN GROUPS
Info: 3 ATOMS IN LARGEST HYDROGEN GROUP
Info: 994 MIGRATION GROUPS
Info: 3 ATOMS IN LARGEST MIGRATION GROUP
Info: 11 HYDROGEN GROUPS WITH ALL ATOMS FIXED
Info: TOTAL MASS = 17853.9 amu
Info: TOTAL CHARGE = -3.53903e-08 e
Info: MASS DENSITY = 0.678894 g/cm^3
Info: ATOM DENSITY = 0.0679631 atoms/A^3
Info: ADDED 0 IMPLICIT EXCLUSIONS
Info: NONBONDED TABLE R-SQUARED SPACING: 0.0625
Info: NONBONDED TABLE SIZE: 705 POINTS
Info: REMOVING COM VELOCITY -0.0995257 -0.104396 0.0532434
TCL: Running for 100000 steps
ETITLE: TS BOND ANGLE DIHED IMPRP ELECT VDW BOUNDARY MISC KINETIC TOTAL TEMP POTENTIAL TOTAL3 TEMPAVG PRESSURE GPRESSURE VOLUME PRESSAVG GPRESSAVG
ENERGY: 0 0.0000 0.0000 0.0000 0.0000 -13800.5665 2395.6114 0.0000 0.0000 1744.6052 -9660.3499 297.7027 -11404.9552 -9660.0021 297.7027 257.7409 295.7482 43670.7328 257.7409 295.7482
ENERGY: 100000 0.0000 0.0000 0.0000 0.0000 -14255.2958 2393.1054 0.0000 0.0000 175.8248 -11686.3657 30.0031 -11862.1905 -11685.9462 30.8989 -892.9299 -859.5112 29013.8261 4.3541 4.3390
TCL: Running 100000 steps at 60 kelvin.
TCL: Setting parameter langevinTemp to 60
TCL: Running for 100000 steps
ETITLE: TS BOND ANGLE DIHED IMPRP ELECT VDW BOUNDARY MISC KINETIC TOTAL TEMP POTENTIAL TOTAL3 TEMPAVG PRESSURE GPRESSURE VOLUME PRESSAVG GPRESSAVG
ENERGY: 100000 0.0000 0.0000 0.0000 0.0000 -14255.2958 2393.1054 0.0000 0.0000 175.7359 -11686.4545 29.9879 -11862.1905 -11686.0430 29.9879 -917.5156 -859.5967 29013.8261 -917.5156 -859.5967
ENERGY: 200000 0.0000 0.0000 0.0000 0.0000 -14234.4759 2439.1426 0.0000 0.0000 353.1838 -11442.1495 60.2679 -11795.3334 -11441.2764 59.8834 -136.7412 -99.2817 28735.0899 3.8388 3.9233
TCL: Running 100000 steps at 90 kelvin.
TCL: Setting parameter langevinTemp to 90
TCL: Running for 100000 steps
ETITLE: TS BOND ANGLE DIHED IMPRP ELECT VDW BOUNDARY MISC KINETIC TOTAL TEMP POTENTIAL TOTAL3 TEMPAVG PRESSURE GPRESSURE VOLUME PRESSAVG GPRESSAVG
ENERGY: 200000 0.0000 0.0000 0.0000 0.0000 -14234.4759 2439.1426 0.0000 0.0000 353.0057 -11442.3276 60.2376 -11795.3334 -11441.6134 60.2376 -141.7028 -99.3987 28735.0899 -141.7028 -99.3987
ENERGY: 300000 0.0000 0.0000 0.0000 0.0000 -14176.6884 2475.3340 0.0000 0.0000 518.2079 -11183.1465 88.4280 -11701.3545 -11181.7569 89.9619 544.5968 578.9329 28921.9355 2.8563 2.8799
TCL: Running 100000 steps at 120 kelvin.
TCL: Setting parameter langevinTemp to 120
TCL: Running for 100000 steps
ETITLE: TS BOND ANGLE DIHED IMPRP ELECT VDW BOUNDARY MISC KINETIC TOTAL TEMP POTENTIAL TOTAL3 TEMPAVG PRESSURE GPRESSURE VOLUME PRESSAVG GPRESSAVG
ENERGY: 300000 0.0000 0.0000 0.0000 0.0000 -14176.6884 2475.3340 0.0000 0.0000 517.9504 -11183.4041 88.3840 -11701.3545 -11182.1838 88.3840 529.6605 578.8768 28921.9355 529.6605 578.8768
ENERGY: 400000 0.0000 0.0000 0.0000 0.0000 -13914.2724 2380.4884 0.0000 0.0000 690.1627 -10843.6214 117.7706 -11533.7840 -10842.4260 120.1452 94.5296 175.5221 29298.3203 4.3445 4.2887
TCL: Running 100000 steps at 150 kelvin.
TCL: Setting parameter langevinTemp to 150
TCL: Running for 100000 steps
ETITLE: TS BOND ANGLE DIHED IMPRP ELECT VDW BOUNDARY MISC KINETIC TOTAL TEMP POTENTIAL TOTAL3 TEMPAVG PRESSURE GPRESSURE VOLUME PRESSAVG GPRESSAVG
ENERGY: 400000 0.0000 0.0000 0.0000 0.0000 -13914.2724 2380.4884 0.0000 0.0000 689.8137 -10843.9703 117.7111 -11533.7840 -10842.7840 117.7111 122.5175 174.9951 29298.3203 122.5175 174.9951
ENERGY: 500000 0.0000 0.0000 0.0000 0.0000 -13635.3599 2262.2489 0.0000 0.0000 891.2088 -10481.9022 152.0775 -11373.1111 -10479.1374 149.9270 -150.4579 -104.2827 29411.7612 5.1907 5.2383
TCL: Running 100000 steps at 180 kelvin.
TCL: Setting parameter langevinTemp to 180
TCL: Running for 100000 steps
ETITLE: TS BOND ANGLE DIHED IMPRP ELECT VDW BOUNDARY MISC KINETIC TOTAL TEMP POTENTIAL TOTAL3 TEMPAVG PRESSURE GPRESSURE VOLUME PRESSAVG GPRESSAVG
ENERGY: 500000 0.0000 0.0000 0.0000 0.0000 -13635.3599 2262.2489 0.0000 0.0000 890.7718 -10482.3392 152.0030 -11373.1111 -10480.6340 152.0030 -160.3960 -103.4298 29411.7612 -160.3960 -103.4298
ENERGY: 600000 0.0000 0.0000 0.0000 0.0000 -13238.3511 2152.0343 0.0000 0.0000 1084.6055 -10001.7112 185.0791 -11086.3167 -9998.9630 179.8240 500.0700 577.9234 28608.6151 4.1957 4.1423
TCL: Running 100000 steps at 210 kelvin.
TCL: Setting parameter langevinTemp to 210
TCL: Running for 100000 steps
ETITLE: TS BOND ANGLE DIHED IMPRP ELECT VDW BOUNDARY MISC KINETIC TOTAL TEMP POTENTIAL TOTAL3 TEMPAVG PRESSURE GPRESSURE VOLUME PRESSAVG GPRESSAVG
ENERGY: 600000 0.0000 0.0000 0.0000 0.0000 -13238.3511 2152.0343 0.0000 0.0000 1084.0927 -10002.2240 184.9916 -11086.3167 -10000.3220 184.9916 519.1931 579.2206 28608.6151 519.1931 579.2206
ENERGY: 700000 0.0000 0.0000 0.0000 0.0000 -12457.0873 1903.4568 0.0000 0.0000 1216.1551 -9337.4754 207.5270 -10553.6305 -9335.0991 209.9755 166.1445 185.3736 29017.7698 2.7300 2.7884
TCL: Running 100000 steps at 240 kelvin.
TCL: Setting parameter langevinTemp to 240
TCL: Running for 100000 steps
ETITLE: TS BOND ANGLE DIHED IMPRP ELECT VDW BOUNDARY MISC KINETIC TOTAL TEMP POTENTIAL TOTAL3 TEMPAVG PRESSURE GPRESSURE VOLUME PRESSAVG GPRESSAVG
ENERGY: 700000 0.0000 0.0000 0.0000 0.0000 -12457.0873 1903.4568 0.0000 0.0000 1215.5424 -9338.0881 207.4224 -10553.6305 -9336.0143 207.4224 118.8604 183.8928 29017.7698 118.8604 183.8928
ENERGY: 800000 0.0000 0.0000 0.0000 0.0000 -11938.6977 1693.4951 0.0000 0.0000 1466.2545 -8778.9481 250.2044 -10245.2026 -8775.5182 240.3133 -405.7397 -336.8871 29332.6214 4.1512 4.0641
TCL: Running 100000 steps at 270 kelvin.
TCL: Setting parameter langevinTemp to 270
TCL: Running for 100000 steps
ETITLE: TS BOND ANGLE DIHED IMPRP ELECT VDW BOUNDARY MISC KINETIC TOTAL TEMP POTENTIAL TOTAL3 TEMPAVG PRESSURE GPRESSURE VOLUME PRESSAVG GPRESSAVG
ENERGY: 800000 0.0000 0.0000 0.0000 0.0000 -11938.6977 1693.4951 0.0000 0.0000 1465.5769 -8779.6257 250.0888 -10245.2026 -8777.1099 250.0888 -415.6698 -336.6162 29332.6214 -415.6698 -336.6162
ENERGY: 900000 0.0000 0.0000 0.0000 0.0000 -11255.1916 1541.6632 0.0000 0.0000 1550.2100 -8163.3184 264.5307 -9713.5284 -8162.5563 270.1272 -59.1111 -14.0342 29810.2941 2.8156 2.8624
TCL: Running 1000000 steps at 300 kelvin.
TCL: Setting parameter langevinTemp to 300
TCL: Running for 1000000 steps
ETITLE: TS BOND ANGLE DIHED IMPRP ELECT VDW BOUNDARY MISC KINETIC TOTAL TEMP POTENTIAL TOTAL3 TEMPAVG PRESSURE GPRESSURE VOLUME PRESSAVG GPRESSAVG
ENERGY: 900000 0.0000 0.0000 0.0000 0.0000 -11255.1916 1541.6632 0.0000 0.0000 1549.4505 -8164.0778 264.4011 -9713.5284 -8161.9265 264.4011 -103.7267 -14.6900 29810.2941 -103.7267 -14.6900
ENERGY: 1100000 0.0000 0.0000 0.0000 0.0000 -10608.5443 1319.0558 0.0000 0.0000 1732.2423 -7557.2461 295.5931 -9289.4885 -7552.8417 300.2380 -943.9692 -799.5553 30759.6581 3.7826 3.8826
ENERGY: 1300000 0.0000 0.0000 0.0000 0.0000 -11002.9317 1570.6681 0.0000 0.0000 1787.4848 -7644.7788 305.0198 -9432.2635 -7640.4998 300.3326 874.7478 922.9226 30153.1346 3.0975 2.9594
ENERGY: 1500000 0.0000 0.0000 0.0000 0.0000 -10638.1309 1382.2062 0.0000 0.0000 1819.8908 -7436.0339 310.5496 -9255.9246 -7432.6396 300.9265 -208.1006 -141.6750 30896.8009 3.2405 3.2460
ENERGY: 1700000 0.0000 0.0000 0.0000 0.0000 -10817.4847 1460.1291 0.0000 0.0000 1774.3164 -7583.0392 302.7727 -9357.3556 -7577.9275 300.3712 158.3636 267.2170 30473.3138 3.3653 3.3200
ENERGY: 1900000 0.0000 0.0000 0.0000 0.0000 -10703.2310 1326.9771 0.0000 0.0000 1730.8336 -7645.4203 295.3527 -9376.2539 -7643.2547 300.0604 -1138.4539 -996.2293 30746.0900 3.1819 3.1529
TCL: Exiting due to exit command.
