Info: SIMULATION PARAMETERS:
Info: TIMESTEP               2
Info: NUMBER OF STEPS        0
Info: STEPS PER CYCLE        10
Info: PERIODIC CELL BASIS 1  37.38 0 0
Info: PERIODIC CELL BASIS 2  0 36.032 0
Info: PERIODIC CELL BASIS 3  0 0 31.855
Info: PERIODIC CELL CENTER   0 0 0
Info: WRAPPING WATERS AROUND PERIODIC BOUNDARIES ON OUTPUT.
Info: WRAPPING ALL CLUSTERS AROUND PERIODIC BOUNDARIES ON OUTPUT.
Info: FIRST LDB TIMESTEP     50
Info: LAST LDB TIMESTEP     -1
Info: HOM BACKGROUND SCALING 1
Info: PME BACKGROUND SCALING 1
Info: MIN ATOMS PER PATCH    40
Info: EMPTY PATCH LOAD       40 ATOMS
Info: INITIAL TEMPERATURE    300
Info: CENTER OF MASS MOVING INITIALLY? NO
Info: DIELECTRIC             1
Info: EXCLUDE                SCALED ONE-FOUR
Info: 1-4 ELECTROSTATICS SCALED BY 0.833333
Info: MODIFIED 1-4 VDW PARAMETERS WILL BE USED
Info: DCD FILENAME           mobley_4780078_equil.dcd
Info: DCD FREQUENCY          100000
Info: DCD FIRST STEP         100000
Info: DCD FILE WILL CONTAIN UNIT CELL DATA
Info: XST FILENAME           mobley_4780078_equil.xst
Info: XST FREQUENCY          100000
Info: NO VELOCITY DCD OUTPUT
Info: NO FORCE DCD OUTPUT
Info: OUTPUT FILENAME        mobley_4780078_equil
Info: BINARY OUTPUT FILES WILL BE USED
Info: RESTART FILENAME       mobley_4780078_equil.restart
Info: RESTART FREQUENCY      100000
Info: BINARY RESTART FILES WILL BE USED
Info: CUTOFF                 9
Info: PAIRLIST DISTANCE      11
Info: PAIRLIST SHRINK RATE   0.01
Info: PAIRLIST GROW RATE     0.01
Info: PAIRLIST TRIGGER       0.3
Info: PAIRLISTS PER CYCLE    2
Info: PAIRLISTS ENABLED
Info: MARGIN                 8
Info: HYDROGEN GROUP CUTOFF  2.5
Info: PATCH DIMENSION        21.5
Info: ENERGY OUTPUT STEPS    100000
Info: ENERGY EVALUATION STEPS    100000
Info: OUTPUT ENERGY PRECISION 4
Info: CROSSTERM ENERGY INCLUDED IN DIHEDRAL
Info: TIMING OUTPUT STEPS    1000000
Info: PRESSURE OUTPUT STEPS  100000
Info: FIXED ATOMS ACTIVE
Info: LANGEVIN DYNAMICS ACTIVE
Info: LANGEVIN TEMPERATURE   30
Info: LANGEVIN USING BBK INTEGRATOR
Info: LANGEVIN DAMPING COEFFICIENT IS 1 INVERSE PS
Info: LANGEVIN DYNAMICS APPLIED TO HYDROGENS
Info: LANGEVIN PISTON PRESSURE CONTROL ACTIVE
Info:        TARGET PRESSURE IS 1.01325 BAR
Info:     OSCILLATION PERIOD IS 50 FS
Info:             DECAY TIME IS 25 FS
Info:     PISTON TEMPERATURE IS 300 K
Info:       PRESSURE CONTROL IS GROUP-BASED
Info:    INITIAL STRAIN RATE IS 0 0 0
Info:       CELL FLUCTUATION IS ISOTROPIC
Info: PARTICLE MESH EWALD (PME) ACTIVE
Info: PME TOLERANCE               1e-06
Info: PME EWALD COEFFICIENT       0.348832
Info: PME INTERPOLATION ORDER     4
Info: PME GRID DIMENSIONS         40 40 32
Info: PME MAXIMUM GRID SPACING    1
Info: FULL ELECTROSTATIC EVALUATION FREQUENCY      2
Info: USING VERLET I (r-RESPA) MTS SCHEME.
Info: C1 SPLITTING OF LONG RANGE ELECTROSTATICS
Info: PLACING ATOMS IN PATCHES BY HYDROGEN GROUPS
Info: RIGID BONDS TO HYDROGEN : ALL
Info:         ERROR TOLERANCE : 1e-08
Info:          MAX ITERATIONS : 100
Info: RIGID WATER USING SETTLE ALGORITHM
Info: RANDOM NUMBER SEED     1744678418
Info: USE HYDROGEN BONDS?    NO
Info: Using AMBER format force field!
Info: AMBER PARM FILE        mobley_4780078.prmtop
Info: COORDINATE PDB         mobley_4780078.pdb
Info: Exclusions will be read from PARM file!
Info: SCNB (VDW SCALING)     2
Info: USING ARITHMETIC MEAN TO COMBINE L-J SIGMA PARAMETERS
Info: BINARY COORDINATES     mobley_4780078_min.coor
Info: SUMMARY OF PARAMETERS:
Info: 8 BONDS
Info: 7 ANGLES
Info:   7 HARMONIC
Info:   0 COSINE-BASED
Info: 4 DIHEDRAL
Info: 0 IMPROPER
Info: 0 CROSSTERM
Info: 0 VDW
Info: 28 VDW_PAIRS
Info: 0 NBTHOLE_PAIRS
Info: STRUCTURE SUMMARY:
Info: 2905 ATOMS
Info: 2905 BONDS
Info: 31 ANGLES
Info: 44 DIHEDRALS
Info: 0 IMPROPERS
Info: 0 CROSSTERMS
Info: 2971 EXCLUSIONS
Info: 19 FIXED ATOMS
Info: 2896 RIGID BONDS
Info: 10 RIGID BONDS BETWEEN FIXED ATOMS
Info: 5772 DEGREES OF FREEDOM
Info: 971 HYDROGEN GROUPS
Info: 4 ATOMS IN LARGEST HYDROGEN GROUP
Info: 971 MIGRATION GROUPS
Info: 4 ATOMS IN LARGEST MIGRATION GROUP
Info: 9 HYDROGEN GROUPS WITH ALL ATOMS FIXED
Info: TOTAL MASS = 17453.6 amu
Info: TOTAL CHARGE = 2.23517e-08 e
Info: MASS DENSITY = 0.675519 g/cm^3
Info: ATOM DENSITY = 0.0677081 atoms/A^3
Info: ADDED 0 IMPLICIT EXCLUSIONS
Info: NONBONDED TABLE R-SQUARED SPACING: 0.0625
Info: NONBONDED TABLE SIZE: 705 POINTS
Info: REMOVING COM VELOCITY -0.0456798 0.129357 -0.200732
TCL: Running for 100000 steps
ETITLE: TS BOND ANGLE DIHED IMPRP ELECT VDW BOUNDARY MISC KINETIC TOTAL TEMP POTENTIAL TOTAL3 TEMPAVG PRESSURE GPRESSURE VOLUME PRESSAVG GPRESSAVG
ENERGY: 0 0.0000 0.0000 0.0000 0.0000 -13464.7987 2349.7276 0.0000 0.0000 1778.3888 -9336.6823 310.0922 -11115.0711 -9336.3233 310.0922 364.6600 392.7490 42904.7401 364.6600 392.7490
ENERGY: 100000 0.0000 0.0000 0.0000 0.0000 -13984.3639 2391.4501 0.0000 0.0000 175.8342 -11417.0796 30.6597 -11592.9138 -11416.6556 30.9430 -319.8530 -271.1701 28367.0448 4.2902 4.2717
TCL: Running 100000 steps at 60 kelvin.
TCL: Setting parameter langevinTemp to 60
TCL: Running for 100000 steps
ETITLE: TS BOND ANGLE DIHED IMPRP ELECT VDW BOUNDARY MISC KINETIC TOTAL TEMP POTENTIAL TOTAL3 TEMPAVG PRESSURE GPRESSURE VOLUME PRESSAVG GPRESSAVG
ENERGY: 100000 0.0000 0.0000 0.0000 0.0000 -13984.3639 2391.4501 0.0000 0.0000 175.7480 -11417.1658 30.6446 -11592.9138 -11416.7640 30.6446 -314.8430 -271.2999 28367.0448 -314.8430 -271.2999
ENERGY: 200000 0.0000 0.0000 0.0000 0.0000 -13845.7944 2337.8372 0.0000 0.0000 355.0301 -11152.9270 61.9055 -11507.9572 -11151.9074 60.0487 -525.3287 -465.3299 28496.3306 5.5284 5.5888
TCL: Running 100000 steps at 90 kelvin.
TCL: Setting parameter langevinTemp to 90
TCL: Running for 100000 steps
ETITLE: TS BOND ANGLE DIHED IMPRP ELECT VDW BOUNDARY MISC KINETIC TOTAL TEMP POTENTIAL TOTAL3 TEMPAVG PRESSURE GPRESSURE VOLUME PRESSAVG GPRESSAVG
ENERGY: 200000 0.0000 0.0000 0.0000 0.0000 -13845.7944 2337.8372 0.0000 0.0000 354.8499 -11153.1073 61.8741 -11507.9572 -11152.1040 61.8741 -504.6458 -465.3218 28496.3306 -504.6458 -465.3218
ENERGY: 300000 0.0000 0.0000 0.0000 0.0000 -13601.8515 2221.9228 0.0000 0.0000 535.8933 -10844.0353 93.4421 -11379.9286 -10842.4305 89.9882 -956.4233 -876.2200 28506.9624 4.2357 4.2128
TCL: Running 100000 steps at 120 kelvin.
TCL: Setting parameter langevinTemp to 120
TCL: Running for 100000 steps
ETITLE: TS BOND ANGLE DIHED IMPRP ELECT VDW BOUNDARY MISC KINETIC TOTAL TEMP POTENTIAL TOTAL3 TEMPAVG PRESSURE GPRESSURE VOLUME PRESSAVG GPRESSAVG
ENERGY: 300000 0.0000 0.0000 0.0000 0.0000 -13601.8515 2221.9228 0.0000 0.0000 535.6383 -10844.2904 93.3976 -11379.9286 -10843.0366 93.3976 -928.3141 -876.7589 28506.9624 -928.3141 -876.7589
ENERGY: 400000 0.0000 0.0000 0.0000 0.0000 -13563.7931 2299.1553 0.0000 0.0000 685.0717 -10579.5661 119.4538 -11264.6378 -10578.0408 119.9121 162.1173 217.5943 28360.7833 2.1335 2.1301
TCL: Running 100000 steps at 150 kelvin.
TCL: Setting parameter langevinTemp to 150
TCL: Running for 100000 steps
ETITLE: TS BOND ANGLE DIHED IMPRP ELECT VDW BOUNDARY MISC KINETIC TOTAL TEMP POTENTIAL TOTAL3 TEMPAVG PRESSURE GPRESSURE VOLUME PRESSAVG GPRESSAVG
ENERGY: 400000 0.0000 0.0000 0.0000 0.0000 -13563.7931 2299.1553 0.0000 0.0000 684.7294 -10579.9084 119.3941 -11264.6378 -10578.9650 119.3941 168.8173 218.7647 28360.7833 168.8173 218.7647
ENERGY: 500000 0.0000 0.0000 0.0000 0.0000 -13349.3242 2248.8204 0.0000 0.0000 845.1485 -10255.3553 147.3659 -11100.5038 -10253.5297 150.1764 467.9679 488.1177 28369.6729 4.4220 4.4505
TCL: Running 100000 steps at 180 kelvin.
TCL: Setting parameter langevinTemp to 180
TCL: Running for 100000 steps
ETITLE: TS BOND ANGLE DIHED IMPRP ELECT VDW BOUNDARY MISC KINETIC TOTAL TEMP POTENTIAL TOTAL3 TEMPAVG PRESSURE GPRESSURE VOLUME PRESSAVG GPRESSAVG
ENERGY: 500000 0.0000 0.0000 0.0000 0.0000 -13349.3242 2248.8204 0.0000 0.0000 844.7125 -10255.7912 147.2899 -11100.5038 -10254.1740 147.2899 435.3859 488.6444 28369.6729 435.3859 488.6444
ENERGY: 600000 0.0000 0.0000 0.0000 0.0000 -12847.1058 1983.1278 0.0000 0.0000 1013.2315 -9850.7466 176.6740 -10863.9781 -9848.2918 180.1870 -698.7272 -671.4831 28309.7887 3.3584 3.3685
TCL: Running 100000 steps at 210 kelvin.
TCL: Setting parameter langevinTemp to 210
TCL: Running for 100000 steps
ETITLE: TS BOND ANGLE DIHED IMPRP ELECT VDW BOUNDARY MISC KINETIC TOTAL TEMP POTENTIAL TOTAL3 TEMPAVG PRESSURE GPRESSURE VOLUME PRESSAVG GPRESSAVG
ENERGY: 600000 0.0000 0.0000 0.0000 0.0000 -12847.1058 1983.1278 0.0000 0.0000 1012.6921 -9851.2860 176.5800 -10863.9781 -9848.8686 176.5800 -730.0326 -671.9475 28309.7887 -730.0326 -671.9475
ENERGY: 700000 0.0000 0.0000 0.0000 0.0000 -12104.9812 1779.0660 0.0000 0.0000 1233.4017 -9092.5135 215.0644 -10325.9152 -9089.4963 209.9452 -300.6333 -227.4312 28045.1294 3.1076 3.0752
TCL: Running 100000 steps at 240 kelvin.
TCL: Setting parameter langevinTemp to 240
TCL: Running for 100000 steps
ETITLE: TS BOND ANGLE DIHED IMPRP ELECT VDW BOUNDARY MISC KINETIC TOTAL TEMP POTENTIAL TOTAL3 TEMPAVG PRESSURE GPRESSURE VOLUME PRESSAVG GPRESSAVG
ENERGY: 700000 0.0000 0.0000 0.0000 0.0000 -12104.9812 1779.0660 0.0000 0.0000 1232.7780 -9093.1371 214.9557 -10325.9152 -9090.9115 214.9557 -294.7845 -225.6914 28045.1294 -294.7845 -225.6914
ENERGY: 800000 0.0000 0.0000 0.0000 0.0000 -11748.1852 1771.0677 0.0000 0.0000 1369.6826 -8607.4349 238.8273 -9977.1175 -8605.5585 239.2924 807.3682 918.5331 28173.1633 3.4105 3.4867
TCL: Running 100000 steps at 270 kelvin.
TCL: Setting parameter langevinTemp to 270
TCL: Running for 100000 steps
ETITLE: TS BOND ANGLE DIHED IMPRP ELECT VDW BOUNDARY MISC KINETIC TOTAL TEMP POTENTIAL TOTAL3 TEMPAVG PRESSURE GPRESSURE VOLUME PRESSAVG GPRESSAVG
ENERGY: 800000 0.0000 0.0000 0.0000 0.0000 -11748.1852 1771.0677 0.0000 0.0000 1368.9807 -8608.1368 238.7049 -9977.1175 -8606.5004 238.7049 840.7597 917.6036 28173.1633 840.7597 917.6036
ENERGY: 900000 0.0000 0.0000 0.0000 0.0000 -11162.4271 1567.5037 0.0000 0.0000 1536.8635 -8058.0598 267.9781 -9594.9234 -8054.1836 270.2130 187.4879 276.9613 28826.3200 4.2453 4.2907
TCL: Running 1000000 steps at 300 kelvin.
TCL: Setting parameter langevinTemp to 300
TCL: Running for 1000000 steps
ETITLE: TS BOND ANGLE DIHED IMPRP ELECT VDW BOUNDARY MISC KINETIC TOTAL TEMP POTENTIAL TOTAL3 TEMPAVG PRESSURE GPRESSURE VOLUME PRESSAVG GPRESSAVG
ENERGY: 900000 0.0000 0.0000 0.0000 0.0000 -11162.4271 1567.5037 0.0000 0.0000 1536.0784 -8058.8450 267.8412 -9594.9234 -8056.4427 267.8412 194.0598 277.9094 28826.3200 194.0598 277.9094
ENERGY: 1100000 0.0000 0.0000 0.0000 0.0000 -10368.7061 1328.1828 0.0000 0.0000 1737.8372 -7302.6861 303.0213 -9040.5234 -7300.0503 299.4755 -543.9728 -447.0425 30314.6687 1.3188 1.1560
ENERGY: 1300000 0.0000 0.0000 0.0000 0.0000 -10574.5124 1412.1036 0.0000 0.0000 1735.8488 -7426.5599 302.6746 -9162.4088 -7421.7033 299.9621 -162.1574 -88.6114 30007.6420 4.7278 4.5057
ENERGY: 1500000 0.0000 0.0000 0.0000 0.0000 -10550.7020 1426.0905 0.0000 0.0000 1703.1280 -7421.4835 296.9692 -9124.6115 -7420.1115 300.3902 27.6393 64.4421 30573.4300 2.6170 2.4847
ENERGY: 1700000 0.0000 0.0000 0.0000 0.0000 -10519.0030 1343.3447 0.0000 0.0000 1717.9400 -7457.7183 299.5519 -9175.6584 -7452.9472 299.7638 -830.7026 -675.8055 29961.2539 3.2652 3.1206
ENERGY: 1900000 0.0000 0.0000 0.0000 0.0000 -10614.6370 1450.6973 0.0000 0.0000 1634.5028 -7529.4368 285.0032 -9163.9396 -7527.4752 299.9051 436.5876 556.7268 29591.9182 3.6104 3.7407
TCL: Exiting due to exit command.
