Info: SIMULATION PARAMETERS:
Info: TIMESTEP               2
Info: NUMBER OF STEPS        0
Info: STEPS PER CYCLE        10
Info: PERIODIC CELL BASIS 1  36.592 0 0
Info: PERIODIC CELL BASIS 2  0 35.267 0
Info: PERIODIC CELL BASIS 3  0 0 34.229
Info: PERIODIC CELL CENTER   0 0 0
Info: WRAPPING WATERS AROUND PERIODIC BOUNDARIES ON OUTPUT.
Info: WRAPPING ALL CLUSTERS AROUND PERIODIC BOUNDARIES ON OUTPUT.
Info: FIRST LDB TIMESTEP     50
Info: LAST LDB TIMESTEP     -1
Info: HOM BACKGROUND SCALING 1
Info: PME BACKGROUND SCALING 1
Info: MIN ATOMS PER PATCH    40
Info: EMPTY PATCH LOAD       40 ATOMS
Info: INITIAL TEMPERATURE    300
Info: CENTER OF MASS MOVING INITIALLY? NO
Info: DIELECTRIC             1
Info: EXCLUDE                SCALED ONE-FOUR
Info: 1-4 ELECTROSTATICS SCALED BY 0.833333
Info: MODIFIED 1-4 VDW PARAMETERS WILL BE USED
Info: DCD FILENAME           mobley_627267_equil.dcd
Info: DCD FREQUENCY          100000
Info: DCD FIRST STEP         100000
Info: DCD FILE WILL CONTAIN UNIT CELL DATA
Info: XST FILENAME           mobley_627267_equil.xst
Info: XST FREQUENCY          100000
Info: NO VELOCITY DCD OUTPUT
Info: NO FORCE DCD OUTPUT
Info: OUTPUT FILENAME        mobley_627267_equil
Info: BINARY OUTPUT FILES WILL BE USED
Info: RESTART FILENAME       mobley_627267_equil.restart
Info: RESTART FREQUENCY      100000
Info: BINARY RESTART FILES WILL BE USED
Info: CUTOFF                 9
Info: PAIRLIST DISTANCE      11
Info: PAIRLIST SHRINK RATE   0.01
Info: PAIRLIST GROW RATE     0.01
Info: PAIRLIST TRIGGER       0.3
Info: PAIRLISTS PER CYCLE    2
Info: PAIRLISTS ENABLED
Info: MARGIN                 8
Info: HYDROGEN GROUP CUTOFF  2.5
Info: PATCH DIMENSION        21.5
Info: ENERGY OUTPUT STEPS    100000
Info: ENERGY EVALUATION STEPS    100000
Info: OUTPUT ENERGY PRECISION 4
Info: CROSSTERM ENERGY INCLUDED IN DIHEDRAL
Info: TIMING OUTPUT STEPS    1000000
Info: PRESSURE OUTPUT STEPS  100000
Info: FIXED ATOMS ACTIVE
Info: LANGEVIN DYNAMICS ACTIVE
Info: LANGEVIN TEMPERATURE   30
Info: LANGEVIN USING BBK INTEGRATOR
Info: LANGEVIN DAMPING COEFFICIENT IS 1 INVERSE PS
Info: LANGEVIN DYNAMICS APPLIED TO HYDROGENS
Info: LANGEVIN PISTON PRESSURE CONTROL ACTIVE
Info:        TARGET PRESSURE IS 1.01325 BAR
Info:     OSCILLATION PERIOD IS 50 FS
Info:             DECAY TIME IS 25 FS
Info:     PISTON TEMPERATURE IS 300 K
Info:       PRESSURE CONTROL IS GROUP-BASED
Info:    INITIAL STRAIN RATE IS 0 0 0
Info:       CELL FLUCTUATION IS ISOTROPIC
Info: PARTICLE MESH EWALD (PME) ACTIVE
Info: PME TOLERANCE               1e-06
Info: PME EWALD COEFFICIENT       0.348832
Info: PME INTERPOLATION ORDER     4
Info: PME GRID DIMENSIONS         40 36 36
Info: PME MAXIMUM GRID SPACING    1
Info: FULL ELECTROSTATIC EVALUATION FREQUENCY      2
Info: USING VERLET I (r-RESPA) MTS SCHEME.
Info: C1 SPLITTING OF LONG RANGE ELECTROSTATICS
Info: PLACING ATOMS IN PATCHES BY HYDROGEN GROUPS
Info: RIGID BONDS TO HYDROGEN : ALL
Info:         ERROR TOLERANCE : 1e-08
Info:          MAX ITERATIONS : 100
Info: RIGID WATER USING SETTLE ALGORITHM
Info: RANDOM NUMBER SEED     1743901688
Info: USE HYDROGEN BONDS?    NO
Info: Using AMBER format force field!
Info: AMBER PARM FILE        mobley_627267.prmtop
Info: COORDINATE PDB         mobley_627267.pdb
Info: Exclusions will be read from PARM file!
Info: SCNB (VDW SCALING)     2
Info: USING ARITHMETIC MEAN TO COMBINE L-J SIGMA PARAMETERS
Info: BINARY COORDINATES     mobley_627267_min.coor
Info: SUMMARY OF PARAMETERS:
Info: 6 BONDS
Info: 7 ANGLES
Info: 5 DIHEDRAL
Info: 0 IMPROPER
Info: 0 CROSSTERM
Info: 0 VDW
Info: 21 VDW_PAIRS
Info: 0 NBTHOLE_PAIRS
Info: STRUCTURE SUMMARY:
Info: 2978 ATOMS
Info: 2977 BONDS
Info: 24 ANGLES
Info: 28 DIHEDRALS
Info: 0 IMPROPERS
Info: 0 CROSSTERMS
Info: 3028 EXCLUSIONS
Info: 14 FIXED ATOMS
Info: 2973 RIGID BONDS
Info: 9 RIGID BONDS BETWEEN FIXED ATOMS
Info: 5928 DEGREES OF FREEDOM
Info: 993 HYDROGEN GROUPS
Info: 4 ATOMS IN LARGEST HYDROGEN GROUP
Info: 993 MIGRATION GROUPS
Info: 4 ATOMS IN LARGEST MIGRATION GROUP
Info: 5 HYDROGEN GROUPS WITH ALL ATOMS FIXED
Info: TOTAL MASS = 17936.8 amu
Info: TOTAL CHARGE = 0.000100003 e
Info: MASS DENSITY = 0.674304 g/cm^3
Info: ATOM DENSITY = 0.067418 atoms/A^3
Info: ADDED 0 IMPLICIT EXCLUSIONS
Info: NONBONDED TABLE R-SQUARED SPACING: 0.0625
Info: NONBONDED TABLE SIZE: 705 POINTS
Info: REMOVING COM VELOCITY 0.160382 -0.0140276 -0.0873007
TCL: Running for 100000 steps
ETITLE: TS BOND ANGLE DIHED IMPRP ELECT VDW BOUNDARY MISC KINETIC TOTAL TEMP POTENTIAL TOTAL3 TEMPAVG PRESSURE GPRESSURE VOLUME PRESSAVG GPRESSAVG
ENERGY: 0 0.0000 0.0000 0.0000 0.0000 -13749.9141 2404.0034 0.0000 0.0000 1748.5906 -9597.3201 296.8727 -11345.9107 -9597.0034 296.8727 381.3227 411.1807 44172.1844 381.3227 411.1807
ENERGY: 100000 0.0000 0.0000 0.0000 0.0000 -14381.0600 2508.5085 0.0000 0.0000 177.2095 -11695.3420 30.0863 -11872.5515 -11694.8151 30.9594 146.2214 216.5898 28836.0876 3.2036 3.1762
TCL: Running 100000 steps at 60 kelvin.
TCL: Setting parameter langevinTemp to 60
TCL: Running for 100000 steps
ETITLE: TS BOND ANGLE DIHED IMPRP ELECT VDW BOUNDARY MISC KINETIC TOTAL TEMP POTENTIAL TOTAL3 TEMPAVG PRESSURE GPRESSURE VOLUME PRESSAVG GPRESSAVG
ENERGY: 100000 0.0000 0.0000 0.0000 0.0000 -14381.0600 2508.5085 0.0000 0.0000 177.1198 -11695.4317 30.0711 -11872.5515 -11695.0608 30.0711 168.0074 216.7628 28836.0876 168.0074 216.7628
ENERGY: 200000 0.0000 0.0000 0.0000 0.0000 -14219.3802 2383.3311 0.0000 0.0000 347.1414 -11488.9077 58.9371 -11836.0492 -11488.1029 59.8469 -708.2393 -683.9357 28860.5642 4.2073 4.1055
TCL: Running 100000 steps at 90 kelvin.
TCL: Setting parameter langevinTemp to 90
TCL: Running for 100000 steps
ETITLE: TS BOND ANGLE DIHED IMPRP ELECT VDW BOUNDARY MISC KINETIC TOTAL TEMP POTENTIAL TOTAL3 TEMPAVG PRESSURE GPRESSURE VOLUME PRESSAVG GPRESSAVG
ENERGY: 200000 0.0000 0.0000 0.0000 0.0000 -14219.3802 2383.3311 0.0000 0.0000 346.9614 -11489.0877 58.9065 -11836.0492 -11488.1454 58.9065 -731.2417 -684.3913 28860.5642 -731.2417 -684.3913
ENERGY: 300000 0.0000 0.0000 0.0000 0.0000 -14241.4749 2526.9499 0.0000 0.0000 530.9964 -11183.5286 90.1517 -11714.5249 -11183.0178 90.0020 900.0661 962.2039 28807.5683 4.6616 4.6549
TCL: Running 100000 steps at 120 kelvin.
TCL: Setting parameter langevinTemp to 120
TCL: Running for 100000 steps
ETITLE: TS BOND ANGLE DIHED IMPRP ELECT VDW BOUNDARY MISC KINETIC TOTAL TEMP POTENTIAL TOTAL3 TEMPAVG PRESSURE GPRESSURE VOLUME PRESSAVG GPRESSAVG
ENERGY: 300000 0.0000 0.0000 0.0000 0.0000 -14241.4749 2526.9499 0.0000 0.0000 530.7333 -11183.7916 90.1070 -11714.5249 -11182.7791 90.1070 912.7404 961.8283 28807.5683 912.7404 961.8283
ENERGY: 400000 0.0000 0.0000 0.0000 0.0000 -13961.2404 2388.8748 0.0000 0.0000 697.4934 -10874.8722 118.4192 -11572.3657 -10874.2339 119.9739 69.8304 130.4224 29365.7745 2.9923 3.0830
TCL: Running 100000 steps at 150 kelvin.
TCL: Setting parameter langevinTemp to 150
TCL: Running for 100000 steps
ETITLE: TS BOND ANGLE DIHED IMPRP ELECT VDW BOUNDARY MISC KINETIC TOTAL TEMP POTENTIAL TOTAL3 TEMPAVG PRESSURE GPRESSURE VOLUME PRESSAVG GPRESSAVG
ENERGY: 400000 0.0000 0.0000 0.0000 0.0000 -13961.2404 2388.8748 0.0000 0.0000 697.1443 -10875.2214 118.3600 -11572.3657 -10874.0245 118.3600 79.3654 129.0989 29365.7745 79.3654 129.0989
ENERGY: 500000 0.0000 0.0000 0.0000 0.0000 -13646.0476 2252.0732 0.0000 0.0000 909.8885 -10484.0859 154.4793 -11393.9743 -10481.4688 150.3273 -576.9124 -552.6286 29779.1016 3.3452 3.2707
TCL: Running 100000 steps at 180 kelvin.
TCL: Setting parameter langevinTemp to 180
TCL: Running for 100000 steps
ETITLE: TS BOND ANGLE DIHED IMPRP ELECT VDW BOUNDARY MISC KINETIC TOTAL TEMP POTENTIAL TOTAL3 TEMPAVG PRESSURE GPRESSURE VOLUME PRESSAVG GPRESSAVG
ENERGY: 500000 0.0000 0.0000 0.0000 0.0000 -13646.0476 2252.0732 0.0000 0.0000 909.4414 -10484.5330 154.4034 -11393.9743 -10482.6897 154.4034 -604.6893 -551.9716 29779.1016 -604.6893 -551.9716
ENERGY: 600000 0.0000 0.0000 0.0000 0.0000 -13285.8871 2163.9198 0.0000 0.0000 1063.6740 -10058.2932 180.5888 -11121.9673 -10056.4883 179.8116 -63.5864 -50.6675 29582.5170 3.1231 3.1490
TCL: Running 100000 steps at 210 kelvin.
TCL: Setting parameter langevinTemp to 210
TCL: Running for 100000 steps
ETITLE: TS BOND ANGLE DIHED IMPRP ELECT VDW BOUNDARY MISC KINETIC TOTAL TEMP POTENTIAL TOTAL3 TEMPAVG PRESSURE GPRESSURE VOLUME PRESSAVG GPRESSAVG
ENERGY: 600000 0.0000 0.0000 0.0000 0.0000 -13285.8871 2163.9198 0.0000 0.0000 1063.1480 -10058.8193 180.4995 -11121.9673 -10056.9399 180.4995 -104.3296 -50.5490 29582.5170 -104.3296 -50.5490
ENERGY: 700000 0.0000 0.0000 0.0000 0.0000 -12436.1522 1849.7311 0.0000 0.0000 1244.7119 -9341.7091 211.3251 -10586.4210 -9337.7235 209.7317 -515.3194 -435.2002 29199.6420 3.6456 3.6901
TCL: Running 100000 steps at 240 kelvin.
TCL: Setting parameter langevinTemp to 240
TCL: Running for 100000 steps
ETITLE: TS BOND ANGLE DIHED IMPRP ELECT VDW BOUNDARY MISC KINETIC TOTAL TEMP POTENTIAL TOTAL3 TEMPAVG PRESSURE GPRESSURE VOLUME PRESSAVG GPRESSAVG
ENERGY: 700000 0.0000 0.0000 0.0000 0.0000 -12436.1522 1849.7311 0.0000 0.0000 1244.0898 -9342.3313 211.2195 -10586.4210 -9340.4601 211.2195 -519.8088 -434.8578 29199.6420 -519.8088 -434.8578
ENERGY: 800000 0.0000 0.0000 0.0000 0.0000 -11771.7365 1629.1318 0.0000 0.0000 1428.2019 -8714.4028 242.4777 -10142.6047 -8710.2713 240.3509 -766.2963 -779.0566 29639.3168 3.7881 3.9641
TCL: Running 100000 steps at 270 kelvin.
TCL: Setting parameter langevinTemp to 270
TCL: Running for 100000 steps
ETITLE: TS BOND ANGLE DIHED IMPRP ELECT VDW BOUNDARY MISC KINETIC TOTAL TEMP POTENTIAL TOTAL3 TEMPAVG PRESSURE GPRESSURE VOLUME PRESSAVG GPRESSAVG
ENERGY: 800000 0.0000 0.0000 0.0000 0.0000 -11771.7365 1629.1318 0.0000 0.0000 1427.4881 -8715.1166 242.3565 -10142.6047 -8712.1740 242.3565 -851.1376 -778.2210 29639.3168 -851.1376 -778.2210
ENERGY: 900000 0.0000 0.0000 0.0000 0.0000 -11340.7245 1621.8097 0.0000 0.0000 1594.7125 -8124.2023 270.7476 -9718.9148 -8122.0601 269.2718 620.8285 696.4342 29698.3248 3.5864 3.5605
TCL: Running 1000000 steps at 300 kelvin.
TCL: Setting parameter langevinTemp to 300
TCL: Running for 1000000 steps
ETITLE: TS BOND ANGLE DIHED IMPRP ELECT VDW BOUNDARY MISC KINETIC TOTAL TEMP POTENTIAL TOTAL3 TEMPAVG PRESSURE GPRESSURE VOLUME PRESSAVG GPRESSAVG
ENERGY: 900000 0.0000 0.0000 0.0000 0.0000 -11340.7245 1621.8097 0.0000 0.0000 1593.9349 -8124.9799 270.6156 -9718.9148 -8122.7735 270.6156 621.3574 696.3962 29698.3248 621.3574 696.3962
ENERGY: 1100000 0.0000 0.0000 0.0000 0.0000 -10642.9836 1358.1105 0.0000 0.0000 1798.0476 -7486.8255 305.2695 -9284.8731 -7483.6027 300.6313 -512.7296 -398.2357 30762.9803 3.7804 3.5209
ENERGY: 1300000 0.0000 0.0000 0.0000 0.0000 -10647.6367 1350.3432 0.0000 0.0000 1759.3906 -7537.9029 298.7064 -9297.2935 -7535.4168 299.7545 -847.4439 -755.8155 31185.6731 4.5175 4.5404
ENERGY: 1500000 0.0000 0.0000 0.0000 0.0000 -10576.4882 1348.0738 0.0000 0.0000 1797.3664 -7431.0481 305.1538 -9228.4145 -7427.3370 300.1975 -338.4616 -288.8219 30707.1451 3.3961 3.4268
ENERGY: 1700000 0.0000 0.0000 0.0000 0.0000 -10846.2141 1420.2616 0.0000 0.0000 1789.1472 -7636.8053 303.7584 -9425.9525 -7633.9591 300.0981 -327.2928 -330.4101 30706.4665 2.4462 2.4217
ENERGY: 1900000 0.0000 0.0000 0.0000 0.0000 -10688.7060 1381.5143 0.0000 0.0000 1812.7285 -7494.4632 307.7620 -9307.1917 -7489.0013 299.6754 -783.5590 -674.5491 31303.0112 4.5197 4.5265
TCL: Exiting due to exit command.
