Info: SIMULATION PARAMETERS:
Info: TIMESTEP               2
Info: NUMBER OF STEPS        0
Info: STEPS PER CYCLE        10
Info: PERIODIC CELL BASIS 1  37.968 0 0
Info: PERIODIC CELL BASIS 2  0 35.411 0
Info: PERIODIC CELL BASIS 3  0 0 31.349
Info: PERIODIC CELL CENTER   0 0 0
Info: WRAPPING WATERS AROUND PERIODIC BOUNDARIES ON OUTPUT.
Info: WRAPPING ALL CLUSTERS AROUND PERIODIC BOUNDARIES ON OUTPUT.
Info: FIRST LDB TIMESTEP     50
Info: LAST LDB TIMESTEP     -1
Info: HOM BACKGROUND SCALING 1
Info: PME BACKGROUND SCALING 1
Info: MIN ATOMS PER PATCH    40
Info: EMPTY PATCH LOAD       40 ATOMS
Info: INITIAL TEMPERATURE    300
Info: CENTER OF MASS MOVING INITIALLY? NO
Info: DIELECTRIC             1
Info: EXCLUDE                SCALED ONE-FOUR
Info: 1-4 ELECTROSTATICS SCALED BY 0.833333
Info: MODIFIED 1-4 VDW PARAMETERS WILL BE USED
Info: DCD FILENAME           mobley_2859600_equil.dcd
Info: DCD FREQUENCY          100000
Info: DCD FIRST STEP         100000
Info: DCD FILE WILL CONTAIN UNIT CELL DATA
Info: XST FILENAME           mobley_2859600_equil.xst
Info: XST FREQUENCY          100000
Info: NO VELOCITY DCD OUTPUT
Info: NO FORCE DCD OUTPUT
Info: OUTPUT FILENAME        mobley_2859600_equil
Info: BINARY OUTPUT FILES WILL BE USED
Info: RESTART FILENAME       mobley_2859600_equil.restart
Info: RESTART FREQUENCY      100000
Info: BINARY RESTART FILES WILL BE USED
Info: CUTOFF                 9
Info: PAIRLIST DISTANCE      11
Info: PAIRLIST SHRINK RATE   0.01
Info: PAIRLIST GROW RATE     0.01
Info: PAIRLIST TRIGGER       0.3
Info: PAIRLISTS PER CYCLE    2
Info: PAIRLISTS ENABLED
Info: MARGIN                 8
Info: HYDROGEN GROUP CUTOFF  2.5
Info: PATCH DIMENSION        21.5
Info: ENERGY OUTPUT STEPS    100000
Info: ENERGY EVALUATION STEPS    100000
Info: OUTPUT ENERGY PRECISION 4
Info: CROSSTERM ENERGY INCLUDED IN DIHEDRAL
Info: TIMING OUTPUT STEPS    1000000
Info: PRESSURE OUTPUT STEPS  100000
Info: FIXED ATOMS ACTIVE
Info: LANGEVIN DYNAMICS ACTIVE
Info: LANGEVIN TEMPERATURE   30
Info: LANGEVIN USING BBK INTEGRATOR
Info: LANGEVIN DAMPING COEFFICIENT IS 1 INVERSE PS
Info: LANGEVIN DYNAMICS APPLIED TO HYDROGENS
Info: LANGEVIN PISTON PRESSURE CONTROL ACTIVE
Info:        TARGET PRESSURE IS 1.01325 BAR
Info:     OSCILLATION PERIOD IS 50 FS
Info:             DECAY TIME IS 25 FS
Info:     PISTON TEMPERATURE IS 300 K
Info:       PRESSURE CONTROL IS GROUP-BASED
Info:    INITIAL STRAIN RATE IS 0 0 0
Info:       CELL FLUCTUATION IS ISOTROPIC
Info: PARTICLE MESH EWALD (PME) ACTIVE
Info: PME TOLERANCE               1e-06
Info: PME EWALD COEFFICIENT       0.348832
Info: PME INTERPOLATION ORDER     4
Info: PME GRID DIMENSIONS         40 36 32
Info: PME MAXIMUM GRID SPACING    1
Info: FULL ELECTROSTATIC EVALUATION FREQUENCY      2
Info: USING VERLET I (r-RESPA) MTS SCHEME.
Info: C1 SPLITTING OF LONG RANGE ELECTROSTATICS
Info: PLACING ATOMS IN PATCHES BY HYDROGEN GROUPS
Info: RIGID BONDS TO HYDROGEN : ALL
Info:         ERROR TOLERANCE : 1e-08
Info:          MAX ITERATIONS : 100
Info: RIGID WATER USING SETTLE ALGORITHM
Info: RANDOM NUMBER SEED     1744091979
Info: USE HYDROGEN BONDS?    NO
Info: Using AMBER format force field!
Info: AMBER PARM FILE        mobley_2859600.prmtop
Info: COORDINATE PDB         mobley_2859600.pdb
Info: Exclusions will be read from PARM file!
Info: SCNB (VDW SCALING)     2
Info: USING ARITHMETIC MEAN TO COMBINE L-J SIGMA PARAMETERS
Info: BINARY COORDINATES     mobley_2859600_min.coor
Info: SUMMARY OF PARAMETERS:
Info: 8 BONDS
Info: 8 ANGLES
Info:   8 HARMONIC
Info:   0 COSINE-BASED
Info: 4 DIHEDRAL
Info: 0 IMPROPER
Info: 0 CROSSTERM
Info: 0 VDW
Info: 10 VDW_PAIRS
Info: 0 NBTHOLE_PAIRS
Info: STRUCTURE SUMMARY:
Info: 2935 ATOMS
Info: 2935 BONDS
Info: 24 ANGLES
Info: 40 DIHEDRALS
Info: 0 IMPROPERS
Info: 0 CROSSTERMS
Info: 2988 EXCLUSIONS
Info: 16 FIXED ATOMS
Info: 2927 RIGID BONDS
Info: 8 RIGID BONDS BETWEEN FIXED ATOMS
Info: 5838 DEGREES OF FREEDOM
Info: 981 HYDROGEN GROUPS
Info: 3 ATOMS IN LARGEST HYDROGEN GROUP
Info: 981 MIGRATION GROUPS
Info: 3 ATOMS IN LARGEST MIGRATION GROUP
Info: 8 HYDROGEN GROUPS WITH ALL ATOMS FIXED
Info: TOTAL MASS = 17633.7 amu
Info: TOTAL CHARGE = 9.9998e-05 e
Info: MASS DENSITY = 0.694742 g/cm^3
Info: ATOM DENSITY = 0.0696351 atoms/A^3
Info: ADDED 0 IMPLICIT EXCLUSIONS
Info: NONBONDED TABLE R-SQUARED SPACING: 0.0625
Info: NONBONDED TABLE SIZE: 705 POINTS
Info: REMOVING COM VELOCITY -0.0465352 0.164158 -0.0731522
TCL: Running for 100000 steps
ETITLE: TS BOND ANGLE DIHED IMPRP ELECT VDW BOUNDARY MISC KINETIC TOTAL TEMP POTENTIAL TOTAL3 TEMPAVG PRESSURE GPRESSURE VOLUME PRESSAVG GPRESSAVG
ENERGY: 0 0.0000 0.0000 0.0000 0.0000 -13587.2303 2356.0156 0.0000 0.0000 1726.5381 -9504.6766 297.6477 -11231.2147 -9504.3281 297.6477 233.1331 262.6367 42148.2555 233.1331 262.6367
ENERGY: 100000 0.0000 0.0000 0.0000 0.0000 -14223.9313 2498.1329 0.0000 0.0000 170.5061 -11555.2923 29.3945 -11725.7984 -11554.8072 30.8915 547.4604 607.6078 27851.3765 3.1000 3.0927
TCL: Running 100000 steps at 60 kelvin.
TCL: Setting parameter langevinTemp to 60
TCL: Running for 100000 steps
ETITLE: TS BOND ANGLE DIHED IMPRP ELECT VDW BOUNDARY MISC KINETIC TOTAL TEMP POTENTIAL TOTAL3 TEMPAVG PRESSURE GPRESSURE VOLUME PRESSAVG GPRESSAVG
ENERGY: 100000 0.0000 0.0000 0.0000 0.0000 -14223.9313 2498.1329 0.0000 0.0000 170.4208 -11555.3777 29.3798 -11725.7984 -11555.0852 29.3798 539.2935 607.5997 27851.3765 539.2935 607.5997
ENERGY: 200000 0.0000 0.0000 0.0000 0.0000 -14125.6476 2460.6538 0.0000 0.0000 351.2911 -11313.7027 60.5611 -11664.9938 -11312.8458 60.0554 307.6426 367.1652 28161.9726 4.8027 4.8062
TCL: Running 100000 steps at 90 kelvin.
TCL: Setting parameter langevinTemp to 90
TCL: Running for 100000 steps
ETITLE: TS BOND ANGLE DIHED IMPRP ELECT VDW BOUNDARY MISC KINETIC TOTAL TEMP POTENTIAL TOTAL3 TEMPAVG PRESSURE GPRESSURE VOLUME PRESSAVG GPRESSAVG
ENERGY: 200000 0.0000 0.0000 0.0000 0.0000 -14125.6476 2460.6538 0.0000 0.0000 351.1200 -11313.8738 60.5316 -11664.9938 -11313.0969 60.5316 309.4906 367.0522 28161.9726 309.4906 367.0522
ENERGY: 300000 0.0000 0.0000 0.0000 0.0000 -13811.5316 2273.4749 0.0000 0.0000 525.6006 -11012.4561 90.6113 -11538.0567 -11010.8785 89.8392 -826.5983 -769.7906 28409.1804 3.3544 3.3130
TCL: Running 100000 steps at 120 kelvin.
TCL: Setting parameter langevinTemp to 120
TCL: Running for 100000 steps
ETITLE: TS BOND ANGLE DIHED IMPRP ELECT VDW BOUNDARY MISC KINETIC TOTAL TEMP POTENTIAL TOTAL3 TEMPAVG PRESSURE GPRESSURE VOLUME PRESSAVG GPRESSAVG
ENERGY: 300000 0.0000 0.0000 0.0000 0.0000 -13811.5316 2273.4749 0.0000 0.0000 525.3450 -11012.7117 90.5672 -11538.0567 -11011.4045 90.5672 -818.5880 -770.5405 28409.1804 -818.5880 -770.5405
ENERGY: 400000 0.0000 0.0000 0.0000 0.0000 -13718.9458 2301.3674 0.0000 0.0000 709.5218 -10708.0566 122.3185 -11417.5784 -10706.9243 119.9010 -65.6032 -45.0287 28373.3608 4.6276 4.6192
TCL: Running 100000 steps at 150 kelvin.
TCL: Setting parameter langevinTemp to 150
TCL: Running for 100000 steps
ETITLE: TS BOND ANGLE DIHED IMPRP ELECT VDW BOUNDARY MISC KINETIC TOTAL TEMP POTENTIAL TOTAL3 TEMPAVG PRESSURE GPRESSURE VOLUME PRESSAVG GPRESSAVG
ENERGY: 400000 0.0000 0.0000 0.0000 0.0000 -13718.9458 2301.3674 0.0000 0.0000 709.1647 -10708.4136 122.2569 -11417.5784 -10707.1584 122.2569 -94.9971 -44.8742 28373.3608 -94.9971 -44.8742
ENERGY: 500000 0.0000 0.0000 0.0000 0.0000 -13511.8371 2311.5156 0.0000 0.0000 876.8750 -10323.4465 151.1694 -11200.3214 -10320.8744 149.8104 881.8728 916.8466 28493.7464 2.9268 3.0332
TCL: Running 100000 steps at 180 kelvin.
TCL: Setting parameter langevinTemp to 180
TCL: Running for 100000 steps
ETITLE: TS BOND ANGLE DIHED IMPRP ELECT VDW BOUNDARY MISC KINETIC TOTAL TEMP POTENTIAL TOTAL3 TEMPAVG PRESSURE GPRESSURE VOLUME PRESSAVG GPRESSAVG
ENERGY: 500000 0.0000 0.0000 0.0000 0.0000 -13511.8371 2311.5156 0.0000 0.0000 876.4345 -10323.8869 151.0935 -11200.3214 -10322.7801 151.0935 870.0337 917.6257 28493.7464 870.0337 917.6257
ENERGY: 600000 0.0000 0.0000 0.0000 0.0000 -13214.6402 2283.3070 0.0000 0.0000 1044.6772 -9886.6560 180.0978 -10931.3332 -9885.1867 179.9271 1416.3384 1437.8776 28606.3272 4.6417 4.5078
TCL: Running 100000 steps at 210 kelvin.
TCL: Setting parameter langevinTemp to 210
TCL: Running for 100000 steps
ETITLE: TS BOND ANGLE DIHED IMPRP ELECT VDW BOUNDARY MISC KINETIC TOTAL TEMP POTENTIAL TOTAL3 TEMPAVG PRESSURE GPRESSURE VOLUME PRESSAVG GPRESSAVG
ENERGY: 600000 0.0000 0.0000 0.0000 0.0000 -13214.6402 2283.3070 0.0000 0.0000 1044.1445 -9887.1887 180.0060 -10931.3332 -9885.7841 180.0060 1380.2970 1436.5784 28606.3272 1380.2970 1436.5784
ENERGY: 700000 0.0000 0.0000 0.0000 0.0000 -12216.5464 1798.3778 0.0000 0.0000 1226.2255 -9191.9431 211.3959 -10418.1686 -9188.3139 209.7349 -561.3710 -420.8351 28631.0887 3.1396 3.0340
TCL: Running 100000 steps at 240 kelvin.
TCL: Setting parameter langevinTemp to 240
TCL: Running for 100000 steps
ETITLE: TS BOND ANGLE DIHED IMPRP ELECT VDW BOUNDARY MISC KINETIC TOTAL TEMP POTENTIAL TOTAL3 TEMPAVG PRESSURE GPRESSURE VOLUME PRESSAVG GPRESSAVG
ENERGY: 700000 0.0000 0.0000 0.0000 0.0000 -12216.5464 1798.3778 0.0000 0.0000 1225.5883 -9192.5803 211.2861 -10418.1686 -9190.5578 211.2861 -487.9328 -420.2874 28631.0887 -487.9328 -420.2874
ENERGY: 800000 0.0000 0.0000 0.0000 0.0000 -11837.9939 1841.0458 0.0000 0.0000 1425.3497 -8571.5984 245.7241 -9996.9481 -8568.7548 240.0462 1384.0071 1378.0509 28799.0726 4.6037 4.5769
TCL: Running 100000 steps at 270 kelvin.
TCL: Setting parameter langevinTemp to 270
TCL: Running for 100000 steps
ETITLE: TS BOND ANGLE DIHED IMPRP ELECT VDW BOUNDARY MISC KINETIC TOTAL TEMP POTENTIAL TOTAL3 TEMPAVG PRESSURE GPRESSURE VOLUME PRESSAVG GPRESSAVG
ENERGY: 800000 0.0000 0.0000 0.0000 0.0000 -11837.9939 1841.0458 0.0000 0.0000 1424.6160 -8572.3320 245.5976 -9996.9481 -8570.1641 245.5976 1284.0529 1378.5721 28799.0726 1284.0529 1378.5721
ENERGY: 900000 0.0000 0.0000 0.0000 0.0000 -11141.5462 1509.7097 0.0000 0.0000 1588.3681 -8043.4684 273.8277 -9631.8365 -8039.1970 269.9114 -405.1670 -399.6713 29661.9905 1.8131 2.0430
TCL: Running 1000000 steps at 300 kelvin.
TCL: Setting parameter langevinTemp to 300
TCL: Running for 1000000 steps
ETITLE: TS BOND ANGLE DIHED IMPRP ELECT VDW BOUNDARY MISC KINETIC TOTAL TEMP POTENTIAL TOTAL3 TEMPAVG PRESSURE GPRESSURE VOLUME PRESSAVG GPRESSAVG
ENERGY: 900000 0.0000 0.0000 0.0000 0.0000 -11141.5462 1509.7097 0.0000 0.0000 1587.6043 -8044.2322 273.6961 -9631.8365 -8041.7858 273.6961 -489.6674 -399.8401 29661.9905 -489.6674 -399.8401
ENERGY: 1100000 0.0000 0.0000 0.0000 0.0000 -10677.2137 1457.9287 0.0000 0.0000 1714.8719 -7504.4130 295.6365 -9219.2850 -7500.3837 300.8443 186.3247 262.2457 30390.5831 3.4329 3.4263
ENERGY: 1300000 0.0000 0.0000 0.0000 0.0000 -10675.2287 1410.0749 0.0000 0.0000 1715.0106 -7550.1432 295.6604 -9265.1538 -7545.6893 300.2632 -251.6068 -116.9513 29929.6282 2.4232 2.6908
ENERGY: 1500000 0.0000 0.0000 0.0000 0.0000 -10611.5611 1454.1614 0.0000 0.0000 1775.1389 -7382.2608 306.0262 -9157.3997 -7378.5244 300.3554 368.6109 490.7037 30173.3266 1.8422 1.8694
ENERGY: 1700000 0.0000 0.0000 0.0000 0.0000 -10553.0671 1398.3400 0.0000 0.0000 1745.1786 -7409.5485 300.8612 -9154.7271 -7409.2349 300.5143 -162.3295 -69.4121 30470.6683 2.6903 2.5886
ENERGY: 1900000 0.0000 0.0000 0.0000 0.0000 -10705.1591 1493.8958 0.0000 0.0000 1706.0281 -7505.2352 294.1118 -9211.2633 -7502.6690 300.4506 400.5463 464.4912 30431.7942 2.3056 2.4157
TCL: Exiting due to exit command.
