Info: SIMULATION PARAMETERS:
Info: TIMESTEP               2
Info: NUMBER OF STEPS        0
Info: STEPS PER CYCLE        10
Info: PERIODIC CELL BASIS 1  37.133 0 0
Info: PERIODIC CELL BASIS 2  0 34.26 0
Info: PERIODIC CELL BASIS 3  0 0 34.471
Info: PERIODIC CELL CENTER   0 0 0
Info: WRAPPING WATERS AROUND PERIODIC BOUNDARIES ON OUTPUT.
Info: WRAPPING ALL CLUSTERS AROUND PERIODIC BOUNDARIES ON OUTPUT.
Info: FIRST LDB TIMESTEP     50
Info: LAST LDB TIMESTEP     -1
Info: HOM BACKGROUND SCALING 1
Info: PME BACKGROUND SCALING 1
Info: MIN ATOMS PER PATCH    40
Info: EMPTY PATCH LOAD       40 ATOMS
Info: INITIAL TEMPERATURE    300
Info: CENTER OF MASS MOVING INITIALLY? NO
Info: DIELECTRIC             1
Info: EXCLUDE                SCALED ONE-FOUR
Info: 1-4 ELECTROSTATICS SCALED BY 0.833333
Info: MODIFIED 1-4 VDW PARAMETERS WILL BE USED
Info: DCD FILENAME           mobley_9112978_equil.dcd
Info: DCD FREQUENCY          100000
Info: DCD FIRST STEP         100000
Info: DCD FILE WILL CONTAIN UNIT CELL DATA
Info: XST FILENAME           mobley_9112978_equil.xst
Info: XST FREQUENCY          100000
Info: NO VELOCITY DCD OUTPUT
Info: NO FORCE DCD OUTPUT
Info: OUTPUT FILENAME        mobley_9112978_equil
Info: BINARY OUTPUT FILES WILL BE USED
Info: RESTART FILENAME       mobley_9112978_equil.restart
Info: RESTART FREQUENCY      100000
Info: BINARY RESTART FILES WILL BE USED
Info: CUTOFF                 9
Info: PAIRLIST DISTANCE      11
Info: PAIRLIST SHRINK RATE   0.01
Info: PAIRLIST GROW RATE     0.01
Info: PAIRLIST TRIGGER       0.3
Info: PAIRLISTS PER CYCLE    2
Info: PAIRLISTS ENABLED
Info: MARGIN                 8
Info: HYDROGEN GROUP CUTOFF  2.5
Info: PATCH DIMENSION        21.5
Info: ENERGY OUTPUT STEPS    100000
Info: ENERGY EVALUATION STEPS    100000
Info: OUTPUT ENERGY PRECISION 4
Info: CROSSTERM ENERGY INCLUDED IN DIHEDRAL
Info: TIMING OUTPUT STEPS    1000000
Info: PRESSURE OUTPUT STEPS  100000
Info: FIXED ATOMS ACTIVE
Info: LANGEVIN DYNAMICS ACTIVE
Info: LANGEVIN TEMPERATURE   30
Info: LANGEVIN USING BBK INTEGRATOR
Info: LANGEVIN DAMPING COEFFICIENT IS 1 INVERSE PS
Info: LANGEVIN DYNAMICS APPLIED TO HYDROGENS
Info: LANGEVIN PISTON PRESSURE CONTROL ACTIVE
Info:        TARGET PRESSURE IS 1.01325 BAR
Info:     OSCILLATION PERIOD IS 50 FS
Info:             DECAY TIME IS 25 FS
Info:     PISTON TEMPERATURE IS 300 K
Info:       PRESSURE CONTROL IS GROUP-BASED
Info:    INITIAL STRAIN RATE IS 0 0 0
Info:       CELL FLUCTUATION IS ISOTROPIC
Info: PARTICLE MESH EWALD (PME) ACTIVE
Info: PME TOLERANCE               1e-06
Info: PME EWALD COEFFICIENT       0.348832
Info: PME INTERPOLATION ORDER     4
Info: PME GRID DIMENSIONS         40 36 36
Info: PME MAXIMUM GRID SPACING    1
Info: FULL ELECTROSTATIC EVALUATION FREQUENCY      2
Info: USING VERLET I (r-RESPA) MTS SCHEME.
Info: C1 SPLITTING OF LONG RANGE ELECTROSTATICS
Info: PLACING ATOMS IN PATCHES BY HYDROGEN GROUPS
Info: RIGID BONDS TO HYDROGEN : ALL
Info:         ERROR TOLERANCE : 1e-08
Info:          MAX ITERATIONS : 100
Info: RIGID WATER USING SETTLE ALGORITHM
Info: RANDOM NUMBER SEED     1744091448
Info: USE HYDROGEN BONDS?    NO
Info: Using AMBER format force field!
Info: AMBER PARM FILE        mobley_9112978.prmtop
Info: COORDINATE PDB         mobley_9112978.pdb
Info: Exclusions will be read from PARM file!
Info: SCNB (VDW SCALING)     2
Info: USING ARITHMETIC MEAN TO COMBINE L-J SIGMA PARAMETERS
Info: BINARY COORDINATES     mobley_9112978_min.coor
Info: SUMMARY OF PARAMETERS:
Info: 7 BONDS
Info: 7 ANGLES
Info: 8 DIHEDRAL
Info: 0 IMPROPER
Info: 0 CROSSTERM
Info: 0 VDW
Info: 21 VDW_PAIRS
Info: 0 NBTHOLE_PAIRS
Info: STRUCTURE SUMMARY:
Info: 2955 ATOMS
Info: 2954 BONDS
Info: 24 ANGLES
Info: 38 DIHEDRALS
Info: 0 IMPROPERS
Info: 0 CROSSTERMS
Info: 3003 EXCLUSIONS
Info: 15 FIXED ATOMS
Info: 2950 RIGID BONDS
Info: 10 RIGID BONDS BETWEEN FIXED ATOMS
Info: 5880 DEGREES OF FREEDOM
Info: 985 HYDROGEN GROUPS
Info: 4 ATOMS IN LARGEST HYDROGEN GROUP
Info: 985 MIGRATION GROUPS
Info: 4 ATOMS IN LARGEST MIGRATION GROUP
Info: 5 HYDROGEN GROUPS WITH ALL ATOMS FIXED
Info: TOTAL MASS = 17725.8 amu
Info: TOTAL CHARGE = 0.000100017 e
Info: MASS DENSITY = 0.671219 g/cm^3
Info: ATOM DENSITY = 0.0673839 atoms/A^3
Info: ADDED 0 IMPLICIT EXCLUSIONS
Info: NONBONDED TABLE R-SQUARED SPACING: 0.0625
Info: NONBONDED TABLE SIZE: 705 POINTS
Info: REMOVING COM VELOCITY 0.148468 0.146256 -0.0971468
TCL: Running for 100000 steps
ETITLE: TS BOND ANGLE DIHED IMPRP ELECT VDW BOUNDARY MISC KINETIC TOTAL TEMP POTENTIAL TOTAL3 TEMPAVG PRESSURE GPRESSURE VOLUME PRESSAVG GPRESSAVG
ENERGY: 0 0.0000 0.0000 0.0000 0.0000 -13674.8148 2381.5865 0.0000 0.0000 1696.9979 -9596.2303 290.4654 -11293.2283 -9595.9039 290.4654 210.8541 258.6727 43853.1989 210.8541 258.6727
ENERGY: 100000 0.0000 0.0000 0.0000 0.0000 -14166.5907 2409.3165 0.0000 0.0000 170.3473 -11586.9269 29.1574 -11757.2742 -11586.3634 30.8786 -627.1743 -584.4389 29314.1454 4.2843 4.3245
TCL: Running 100000 steps at 60 kelvin.
TCL: Setting parameter langevinTemp to 60
TCL: Running for 100000 steps
ETITLE: TS BOND ANGLE DIHED IMPRP ELECT VDW BOUNDARY MISC KINETIC TOTAL TEMP POTENTIAL TOTAL3 TEMPAVG PRESSURE GPRESSURE VOLUME PRESSAVG GPRESSAVG
ENERGY: 100000 0.0000 0.0000 0.0000 0.0000 -14166.5907 2409.3165 0.0000 0.0000 170.2642 -11587.0099 29.1432 -11757.2742 -11586.6827 29.1432 -633.4664 -584.3297 29314.1454 -633.4664 -584.3297
ENERGY: 200000 0.0000 0.0000 0.0000 0.0000 -14079.9332 2391.2522 0.0000 0.0000 352.3726 -11336.3083 60.3136 -11688.6810 -11335.2040 59.9759 -441.1516 -392.6125 29184.1803 3.8726 3.9073
TCL: Running 100000 steps at 90 kelvin.
TCL: Setting parameter langevinTemp to 90
TCL: Running for 100000 steps
ETITLE: TS BOND ANGLE DIHED IMPRP ELECT VDW BOUNDARY MISC KINETIC TOTAL TEMP POTENTIAL TOTAL3 TEMPAVG PRESSURE GPRESSURE VOLUME PRESSAVG GPRESSAVG
ENERGY: 200000 0.0000 0.0000 0.0000 0.0000 -14079.9332 2391.2522 0.0000 0.0000 352.2010 -11336.4799 60.2842 -11688.6810 -11335.7066 60.2842 -435.8961 -392.6902 29184.1803 -435.8961 -392.6902
ENERGY: 300000 0.0000 0.0000 0.0000 0.0000 -13905.3894 2332.0783 0.0000 0.0000 517.3528 -11055.9583 88.5523 -11573.3111 -11055.3193 90.0582 -497.0204 -411.3857 29205.5317 4.8953 4.9672
TCL: Running 100000 steps at 120 kelvin.
TCL: Setting parameter langevinTemp to 120
TCL: Running for 100000 steps
ETITLE: TS BOND ANGLE DIHED IMPRP ELECT VDW BOUNDARY MISC KINETIC TOTAL TEMP POTENTIAL TOTAL3 TEMPAVG PRESSURE GPRESSURE VOLUME PRESSAVG GPRESSAVG
ENERGY: 300000 0.0000 0.0000 0.0000 0.0000 -13905.3894 2332.0783 0.0000 0.0000 517.0844 -11056.2267 88.5064 -11573.3111 -11055.2711 88.5064 -471.5754 -411.5283 29205.5317 -471.5754 -411.5283
ENERGY: 400000 0.0000 0.0000 0.0000 0.0000 -13726.0730 2245.0903 0.0000 0.0000 708.2769 -10772.7059 121.2317 -11480.9828 -10771.1270 119.7284 -722.7313 -680.4669 28920.6465 4.6950 4.6198
TCL: Running 100000 steps at 150 kelvin.
TCL: Setting parameter langevinTemp to 150
TCL: Running for 100000 steps
ETITLE: TS BOND ANGLE DIHED IMPRP ELECT VDW BOUNDARY MISC KINETIC TOTAL TEMP POTENTIAL TOTAL3 TEMPAVG PRESSURE GPRESSURE VOLUME PRESSAVG GPRESSAVG
ENERGY: 400000 0.0000 0.0000 0.0000 0.0000 -13726.0730 2245.0903 0.0000 0.0000 707.9316 -10773.0512 121.1726 -11480.9828 -10771.6036 121.1726 -745.1276 -680.6218 28920.6465 -745.1276 -680.6218
ENERGY: 500000 0.0000 0.0000 0.0000 0.0000 -13490.6053 2174.9603 0.0000 0.0000 877.4878 -10438.1572 150.1945 -11315.6450 -10436.7354 149.8382 -845.5665 -772.2078 28993.2963 3.6712 3.6974
TCL: Running 100000 steps at 180 kelvin.
TCL: Setting parameter langevinTemp to 180
TCL: Running for 100000 steps
ETITLE: TS BOND ANGLE DIHED IMPRP ELECT VDW BOUNDARY MISC KINETIC TOTAL TEMP POTENTIAL TOTAL3 TEMPAVG PRESSURE GPRESSURE VOLUME PRESSAVG GPRESSAVG
ENERGY: 500000 0.0000 0.0000 0.0000 0.0000 -13490.6053 2174.9603 0.0000 0.0000 877.0670 -10438.5780 150.1225 -11315.6450 -10436.5666 150.1225 -818.1235 -773.1734 28993.2963 -818.1235 -773.1734
ENERGY: 600000 0.0000 0.0000 0.0000 0.0000 -13167.5390 2146.6702 0.0000 0.0000 1054.0000 -9966.8688 180.4071 -11020.8688 -9964.0653 180.1526 86.4268 159.5367 28960.5029 5.3711 5.2659
TCL: Running 100000 steps at 210 kelvin.
TCL: Setting parameter langevinTemp to 210
TCL: Running for 100000 steps
ETITLE: TS BOND ANGLE DIHED IMPRP ELECT VDW BOUNDARY MISC KINETIC TOTAL TEMP POTENTIAL TOTAL3 TEMPAVG PRESSURE GPRESSURE VOLUME PRESSAVG GPRESSAVG
ENERGY: 600000 0.0000 0.0000 0.0000 0.0000 -13167.5390 2146.6702 0.0000 0.0000 1053.4664 -9967.4024 180.3158 -11020.8688 -9965.5275 180.3158 97.9088 159.2846 28960.5029 97.9088 159.2846
ENERGY: 700000 0.0000 0.0000 0.0000 0.0000 -12361.6710 1843.2264 0.0000 0.0000 1232.5317 -9285.9129 210.9654 -10518.4446 -9284.1876 209.8221 -641.6368 -590.4675 29167.9602 3.1417 3.1055
TCL: Running 100000 steps at 240 kelvin.
TCL: Setting parameter langevinTemp to 240
TCL: Running for 100000 steps
ETITLE: TS BOND ANGLE DIHED IMPRP ELECT VDW BOUNDARY MISC KINETIC TOTAL TEMP POTENTIAL TOTAL3 TEMPAVG PRESSURE GPRESSURE VOLUME PRESSAVG GPRESSAVG
ENERGY: 700000 0.0000 0.0000 0.0000 0.0000 -12361.6710 1843.2264 0.0000 0.0000 1231.9275 -9286.5171 210.8619 -10518.4446 -9283.9858 210.8619 -652.0781 -592.0931 29167.9602 -652.0781 -592.0931
ENERGY: 800000 0.0000 0.0000 0.0000 0.0000 -11793.7693 1759.5467 0.0000 0.0000 1372.0753 -8662.1473 234.8502 -10034.2226 -8658.4055 239.9094 713.1105 729.1740 28879.7638 3.6791 3.6620
TCL: Running 100000 steps at 270 kelvin.
TCL: Setting parameter langevinTemp to 270
TCL: Running for 100000 steps
ETITLE: TS BOND ANGLE DIHED IMPRP ELECT VDW BOUNDARY MISC KINETIC TOTAL TEMP POTENTIAL TOTAL3 TEMPAVG PRESSURE GPRESSURE VOLUME PRESSAVG GPRESSAVG
ENERGY: 800000 0.0000 0.0000 0.0000 0.0000 -11793.7693 1759.5467 0.0000 0.0000 1371.3991 -8662.8235 234.7345 -10034.2226 -8660.9747 234.7345 645.4392 729.8220 28879.7638 645.4392 729.8220
ENERGY: 900000 0.0000 0.0000 0.0000 0.0000 -11239.9226 1564.0952 0.0000 0.0000 1582.2307 -8093.5967 270.8213 -9675.8274 -8091.7460 269.6606 -179.6623 -26.5412 29692.2547 3.5089 3.3941
TCL: Running 1000000 steps at 300 kelvin.
TCL: Setting parameter langevinTemp to 300
TCL: Running for 1000000 steps
ETITLE: TS BOND ANGLE DIHED IMPRP ELECT VDW BOUNDARY MISC KINETIC TOTAL TEMP POTENTIAL TOTAL3 TEMPAVG PRESSURE GPRESSURE VOLUME PRESSAVG GPRESSAVG
ENERGY: 900000 0.0000 0.0000 0.0000 0.0000 -11239.9226 1564.0952 0.0000 0.0000 1581.4465 -8094.3809 270.6871 -9675.8274 -8091.2883 270.6871 -118.9396 -27.8012 29692.2547 -118.9396 -27.8012
ENERGY: 1100000 0.0000 0.0000 0.0000 0.0000 -10773.5818 1424.7240 0.0000 0.0000 1779.7156 -7569.1421 304.6237 -9348.8577 -7566.1626 300.4812 -62.1597 86.9273 29813.3173 4.2672 4.0413
ENERGY: 1300000 0.0000 0.0000 0.0000 0.0000 -10726.9322 1442.0543 0.0000 0.0000 1764.6264 -7520.2515 302.0409 -9284.8779 -7519.2121 300.3719 -154.4644 -45.2677 30694.8877 4.0941 4.1536
ENERGY: 1500000 0.0000 0.0000 0.0000 0.0000 -10676.4903 1435.4434 0.0000 0.0000 1697.4199 -7543.6270 290.5376 -9241.0469 -7541.4627 300.0357 -100.1481 1.6312 30450.1320 2.8215 2.7515
ENERGY: 1700000 0.0000 0.0000 0.0000 0.0000 -10659.7240 1378.2895 0.0000 0.0000 1785.1855 -7496.2490 305.5599 -9281.4346 -7496.0164 299.4795 -386.8056 -229.1549 30149.8996 4.4181 4.0698
ENERGY: 1900000 0.0000 0.0000 0.0000 0.0000 -10680.4186 1432.1589 0.0000 0.0000 1741.6826 -7506.5771 298.1138 -9248.2597 -7503.7776 301.1581 2.6621 70.3724 30700.8801 3.8744 3.8958
TCL: Exiting due to exit command.
