Info: SIMULATION PARAMETERS:
Info: TIMESTEP               2
Info: NUMBER OF STEPS        0
Info: STEPS PER CYCLE        10
Info: PERIODIC CELL BASIS 1  37.435 0 0
Info: PERIODIC CELL BASIS 2  0 35.779 0
Info: PERIODIC CELL BASIS 3  0 0 31.855
Info: PERIODIC CELL CENTER   0 0 0
Info: WRAPPING WATERS AROUND PERIODIC BOUNDARIES ON OUTPUT.
Info: WRAPPING ALL CLUSTERS AROUND PERIODIC BOUNDARIES ON OUTPUT.
Info: FIRST LDB TIMESTEP     50
Info: LAST LDB TIMESTEP     -1
Info: HOM BACKGROUND SCALING 1
Info: PME BACKGROUND SCALING 1
Info: MIN ATOMS PER PATCH    40
Info: EMPTY PATCH LOAD       40 ATOMS
Info: INITIAL TEMPERATURE    300
Info: CENTER OF MASS MOVING INITIALLY? NO
Info: DIELECTRIC             1
Info: EXCLUDE                SCALED ONE-FOUR
Info: 1-4 ELECTROSTATICS SCALED BY 0.833333
Info: MODIFIED 1-4 VDW PARAMETERS WILL BE USED
Info: DCD FILENAME           mobley_7295828_equil.dcd
Info: DCD FREQUENCY          100000
Info: DCD FIRST STEP         100000
Info: DCD FILE WILL CONTAIN UNIT CELL DATA
Info: XST FILENAME           mobley_7295828_equil.xst
Info: XST FREQUENCY          100000
Info: NO VELOCITY DCD OUTPUT
Info: NO FORCE DCD OUTPUT
Info: OUTPUT FILENAME        mobley_7295828_equil
Info: BINARY OUTPUT FILES WILL BE USED
Info: RESTART FILENAME       mobley_7295828_equil.restart
Info: RESTART FREQUENCY      100000
Info: BINARY RESTART FILES WILL BE USED
Info: CUTOFF                 9
Info: PAIRLIST DISTANCE      11
Info: PAIRLIST SHRINK RATE   0.01
Info: PAIRLIST GROW RATE     0.01
Info: PAIRLIST TRIGGER       0.3
Info: PAIRLISTS PER CYCLE    2
Info: PAIRLISTS ENABLED
Info: MARGIN                 8
Info: HYDROGEN GROUP CUTOFF  2.5
Info: PATCH DIMENSION        21.5
Info: ENERGY OUTPUT STEPS    100000
Info: ENERGY EVALUATION STEPS    100000
Info: OUTPUT ENERGY PRECISION 4
Info: CROSSTERM ENERGY INCLUDED IN DIHEDRAL
Info: TIMING OUTPUT STEPS    1000000
Info: PRESSURE OUTPUT STEPS  100000
Info: FIXED ATOMS ACTIVE
Info: LANGEVIN DYNAMICS ACTIVE
Info: LANGEVIN TEMPERATURE   30
Info: LANGEVIN USING BBK INTEGRATOR
Info: LANGEVIN DAMPING COEFFICIENT IS 1 INVERSE PS
Info: LANGEVIN DYNAMICS APPLIED TO HYDROGENS
Info: LANGEVIN PISTON PRESSURE CONTROL ACTIVE
Info:        TARGET PRESSURE IS 1.01325 BAR
Info:     OSCILLATION PERIOD IS 50 FS
Info:             DECAY TIME IS 25 FS
Info:     PISTON TEMPERATURE IS 300 K
Info:       PRESSURE CONTROL IS GROUP-BASED
Info:    INITIAL STRAIN RATE IS 0 0 0
Info:       CELL FLUCTUATION IS ISOTROPIC
Info: PARTICLE MESH EWALD (PME) ACTIVE
Info: PME TOLERANCE               1e-06
Info: PME EWALD COEFFICIENT       0.348832
Info: PME INTERPOLATION ORDER     4
Info: PME GRID DIMENSIONS         40 36 32
Info: PME MAXIMUM GRID SPACING    1
Info: FULL ELECTROSTATIC EVALUATION FREQUENCY      2
Info: USING VERLET I (r-RESPA) MTS SCHEME.
Info: C1 SPLITTING OF LONG RANGE ELECTROSTATICS
Info: PLACING ATOMS IN PATCHES BY HYDROGEN GROUPS
Info: RIGID BONDS TO HYDROGEN : ALL
Info:         ERROR TOLERANCE : 1e-08
Info:          MAX ITERATIONS : 100
Info: RIGID WATER USING SETTLE ALGORITHM
Info: RANDOM NUMBER SEED     1744084964
Info: USE HYDROGEN BONDS?    NO
Info: Using AMBER format force field!
Info: AMBER PARM FILE        mobley_7295828.prmtop
Info: COORDINATE PDB         mobley_7295828.pdb
Info: Exclusions will be read from PARM file!
Info: SCNB (VDW SCALING)     2
Info: USING ARITHMETIC MEAN TO COMBINE L-J SIGMA PARAMETERS
Info: BINARY COORDINATES     mobley_7295828_min.coor
Info: SUMMARY OF PARAMETERS:
Info: 7 BONDS
Info: 6 ANGLES
Info:   6 HARMONIC
Info:   0 COSINE-BASED
Info: 4 DIHEDRAL
Info: 0 IMPROPER
Info: 0 CROSSTERM
Info: 0 VDW
Info: 28 VDW_PAIRS
Info: 0 NBTHOLE_PAIRS
Info: STRUCTURE SUMMARY:
Info: 2956 ATOMS
Info: 2956 BONDS
Info: 25 ANGLES
Info: 35 DIHEDRALS
Info: 0 IMPROPERS
Info: 0 CROSSTERMS
Info: 3007 EXCLUSIONS
Info: 16 FIXED ATOMS
Info: 2948 RIGID BONDS
Info: 8 RIGID BONDS BETWEEN FIXED ATOMS
Info: 5880 DEGREES OF FREEDOM
Info: 988 HYDROGEN GROUPS
Info: 4 ATOMS IN LARGEST HYDROGEN GROUP
Info: 988 MIGRATION GROUPS
Info: 4 ATOMS IN LARGEST MIGRATION GROUP
Info: 8 HYDROGEN GROUPS WITH ALL ATOMS FIXED
Info: TOTAL MASS = 17763.8 amu
Info: TOTAL CHARGE = -0.000100031 e
Info: MASS DENSITY = 0.691372 g/cm^3
Info: ATOM DENSITY = 0.0692821 atoms/A^3
Info: ADDED 0 IMPLICIT EXCLUSIONS
Info: NONBONDED TABLE R-SQUARED SPACING: 0.0625
Info: NONBONDED TABLE SIZE: 705 POINTS
Info: REMOVING COM VELOCITY 0.173469 0.0173368 -0.0878063
TCL: Running for 100000 steps
ETITLE: TS BOND ANGLE DIHED IMPRP ELECT VDW BOUNDARY MISC KINETIC TOTAL TEMP POTENTIAL TOTAL3 TEMPAVG PRESSURE GPRESSURE VOLUME PRESSAVG GPRESSAVG
ENERGY: 0 0.0000 0.0000 0.0000 0.0000 -13730.3437 2380.7385 0.0000 0.0000 1806.8669 -9542.7383 309.2710 -11349.6052 -9542.3694 309.2710 141.5494 170.5684 42666.1686 141.5494 170.5684
ENERGY: 100000 0.0000 0.0000 0.0000 0.0000 -14228.7980 2468.3951 0.0000 0.0000 178.3572 -11582.0457 30.5284 -11760.4029 -11581.1246 30.8369 -144.8162 -99.6939 29174.0169 4.8195 4.7920
TCL: Running 100000 steps at 60 kelvin.
TCL: Setting parameter langevinTemp to 60
TCL: Running for 100000 steps
ETITLE: TS BOND ANGLE DIHED IMPRP ELECT VDW BOUNDARY MISC KINETIC TOTAL TEMP POTENTIAL TOTAL3 TEMPAVG PRESSURE GPRESSURE VOLUME PRESSAVG GPRESSAVG
ENERGY: 100000 0.0000 0.0000 0.0000 0.0000 -14228.7980 2468.3951 0.0000 0.0000 178.2696 -11582.1333 30.5134 -11760.4029 -11581.7299 30.5134 -153.7710 -99.4462 29174.0169 -153.7710 -99.4462
ENERGY: 200000 0.0000 0.0000 0.0000 0.0000 -14201.8585 2488.5006 0.0000 0.0000 349.7621 -11363.5958 59.8668 -11713.3579 -11362.4583 60.0327 399.9113 418.5005 28645.3199 5.2374 5.2838
TCL: Running 100000 steps at 90 kelvin.
TCL: Setting parameter langevinTemp to 90
TCL: Running for 100000 steps
ETITLE: TS BOND ANGLE DIHED IMPRP ELECT VDW BOUNDARY MISC KINETIC TOTAL TEMP POTENTIAL TOTAL3 TEMPAVG PRESSURE GPRESSURE VOLUME PRESSAVG GPRESSAVG
ENERGY: 200000 0.0000 0.0000 0.0000 0.0000 -14201.8585 2488.5006 0.0000 0.0000 349.5790 -11363.7789 59.8354 -11713.3579 -11363.0998 59.8354 378.3467 418.4057 28645.3199 378.3467 418.4057
ENERGY: 300000 0.0000 0.0000 0.0000 0.0000 -14139.8871 2520.7103 0.0000 0.0000 518.9961 -11100.1807 88.8336 -11619.1768 -11098.7292 89.7101 1182.2329 1200.6242 28478.7479 3.0697 3.1523
TCL: Running 100000 steps at 120 kelvin.
TCL: Setting parameter langevinTemp to 120
TCL: Running for 100000 steps
ETITLE: TS BOND ANGLE DIHED IMPRP ELECT VDW BOUNDARY MISC KINETIC TOTAL TEMP POTENTIAL TOTAL3 TEMPAVG PRESSURE GPRESSURE VOLUME PRESSAVG GPRESSAVG
ENERGY: 300000 0.0000 0.0000 0.0000 0.0000 -14139.8871 2520.7103 0.0000 0.0000 518.7359 -11100.4410 88.7890 -11619.1768 -11099.5614 88.7890 1164.7443 1201.2801 28478.7479 1164.7443 1201.2801
ENERGY: 400000 0.0000 0.0000 0.0000 0.0000 -13743.3738 2273.8863 0.0000 0.0000 697.1707 -10772.3168 119.3307 -11469.4875 -10770.0902 120.0374 -427.3829 -387.1383 28831.8919 5.0198 5.1360
TCL: Running 100000 steps at 150 kelvin.
TCL: Setting parameter langevinTemp to 150
TCL: Running for 100000 steps
ETITLE: TS BOND ANGLE DIHED IMPRP ELECT VDW BOUNDARY MISC KINETIC TOTAL TEMP POTENTIAL TOTAL3 TEMPAVG PRESSURE GPRESSURE VOLUME PRESSAVG GPRESSAVG
ENERGY: 400000 0.0000 0.0000 0.0000 0.0000 -13743.3738 2273.8863 0.0000 0.0000 696.8155 -10772.6720 119.2699 -11469.4875 -10771.1657 119.2699 -430.5021 -386.8922 28831.8919 -430.5021 -386.8922
ENERGY: 500000 0.0000 0.0000 0.0000 0.0000 -13548.7640 2238.9035 0.0000 0.0000 868.1761 -10441.6845 148.6007 -11309.8605 -10439.9475 149.7485 -299.9882 -238.4916 29167.3398 4.5063 4.3446
TCL: Running 100000 steps at 180 kelvin.
TCL: Setting parameter langevinTemp to 180
TCL: Running for 100000 steps
ETITLE: TS BOND ANGLE DIHED IMPRP ELECT VDW BOUNDARY MISC KINETIC TOTAL TEMP POTENTIAL TOTAL3 TEMPAVG PRESSURE GPRESSURE VOLUME PRESSAVG GPRESSAVG
ENERGY: 500000 0.0000 0.0000 0.0000 0.0000 -13548.7640 2238.9035 0.0000 0.0000 867.7510 -10442.1095 148.5280 -11309.8605 -10440.4204 148.5280 -279.4898 -239.7396 29167.3398 -279.4898 -239.7396
ENERGY: 600000 0.0000 0.0000 0.0000 0.0000 -13165.1927 2112.6776 0.0000 0.0000 1041.5792 -10010.9359 178.2811 -11052.5151 -10008.1168 179.9268 -283.1847 -213.7490 29120.7096 3.7855 3.6610
TCL: Running 100000 steps at 210 kelvin.
TCL: Setting parameter langevinTemp to 210
TCL: Running for 100000 steps
ETITLE: TS BOND ANGLE DIHED IMPRP ELECT VDW BOUNDARY MISC KINETIC TOTAL TEMP POTENTIAL TOTAL3 TEMPAVG PRESSURE GPRESSURE VOLUME PRESSAVG GPRESSAVG
ENERGY: 600000 0.0000 0.0000 0.0000 0.0000 -13165.1927 2112.6776 0.0000 0.0000 1041.0295 -10011.4856 178.1870 -11052.5151 -10009.8451 178.1870 -277.1904 -212.3592 29120.7096 -277.1904 -212.3592
ENERGY: 700000 0.0000 0.0000 0.0000 0.0000 -12519.7350 1946.2580 0.0000 0.0000 1244.6689 -9328.8081 213.0428 -10573.4770 -9326.5170 209.6619 337.4816 388.3846 28902.8627 3.2693 3.2027
TCL: Running 100000 steps at 240 kelvin.
TCL: Setting parameter langevinTemp to 240
TCL: Running for 100000 steps
ETITLE: TS BOND ANGLE DIHED IMPRP ELECT VDW BOUNDARY MISC KINETIC TOTAL TEMP POTENTIAL TOTAL3 TEMPAVG PRESSURE GPRESSURE VOLUME PRESSAVG GPRESSAVG
ENERGY: 700000 0.0000 0.0000 0.0000 0.0000 -12519.7350 1946.2580 0.0000 0.0000 1244.0772 -9329.3998 212.9415 -10573.4770 -9326.9941 212.9415 317.9576 387.1898 28902.8627 317.9576 387.1898
ENERGY: 800000 0.0000 0.0000 0.0000 0.0000 -11795.2454 1713.6396 0.0000 0.0000 1408.7710 -8672.8348 241.1312 -10081.6058 -8670.7601 240.0242 -74.8539 -5.6920 29362.1201 5.8229 5.6563
TCL: Running 100000 steps at 270 kelvin.
TCL: Setting parameter langevinTemp to 270
TCL: Running for 100000 steps
ETITLE: TS BOND ANGLE DIHED IMPRP ELECT VDW BOUNDARY MISC KINETIC TOTAL TEMP POTENTIAL TOTAL3 TEMPAVG PRESSURE GPRESSURE VOLUME PRESSAVG GPRESSAVG
ENERGY: 800000 0.0000 0.0000 0.0000 0.0000 -11795.2454 1713.6396 0.0000 0.0000 1408.0829 -8673.5229 241.0135 -10081.6058 -8670.8867 241.0135 -111.9663 -6.6811 29362.1201 -111.9663 -6.6811
ENERGY: 900000 0.0000 0.0000 0.0000 0.0000 -11375.9862 1646.7371 0.0000 0.0000 1574.8182 -8154.4309 269.5526 -9729.2491 -8149.5753 269.6423 617.6903 740.6924 29277.5327 4.0057 3.9762
TCL: Running 1000000 steps at 300 kelvin.
TCL: Setting parameter langevinTemp to 300
TCL: Running for 1000000 steps
ETITLE: TS BOND ANGLE DIHED IMPRP ELECT VDW BOUNDARY MISC KINETIC TOTAL TEMP POTENTIAL TOTAL3 TEMPAVG PRESSURE GPRESSURE VOLUME PRESSAVG GPRESSAVG
ENERGY: 900000 0.0000 0.0000 0.0000 0.0000 -11375.9862 1646.7371 0.0000 0.0000 1574.0113 -8155.2378 269.4145 -9729.2491 -8153.3270 269.4145 643.1233 742.6413 29277.5327 643.1233 742.6413
ENERGY: 1100000 0.0000 0.0000 0.0000 0.0000 -10570.0286 1326.3282 0.0000 0.0000 1726.7818 -7516.9186 295.5633 -9243.7004 -7513.1648 300.1866 -1037.6408 -908.4737 30680.7055 2.6642 2.6361
ENERGY: 1300000 0.0000 0.0000 0.0000 0.0000 -10709.8538 1385.1314 0.0000 0.0000 1793.0210 -7531.7014 306.9011 -9324.7224 -7530.4949 299.7486 -250.2815 -169.6618 30183.1809 2.6113 2.6325
ENERGY: 1500000 0.0000 0.0000 0.0000 0.0000 -10653.0692 1385.1269 0.0000 0.0000 1703.0903 -7564.8520 291.5082 -9267.9423 -7560.0685 300.2261 -619.1668 -451.6720 30716.9047 2.9602 2.9084
ENERGY: 1700000 0.0000 0.0000 0.0000 0.0000 -10689.9044 1364.6446 0.0000 0.0000 1705.0494 -7620.2104 291.8435 -9325.2598 -7618.0861 300.3992 -705.4934 -613.7586 30356.7302 4.8933 4.8138
ENERGY: 1900000 0.0000 0.0000 0.0000 0.0000 -10753.4319 1456.6978 0.0000 0.0000 1710.5620 -7586.1720 292.7871 -9296.7340 -7580.8091 299.8798 128.5564 221.9273 30358.1932 4.1707 4.2947
TCL: Exiting due to exit command.
