Info: SIMULATION PARAMETERS:
Info: TIMESTEP               2
Info: NUMBER OF STEPS        0
Info: STEPS PER CYCLE        10
Info: PERIODIC CELL BASIS 1  36.005 0 0
Info: PERIODIC CELL BASIS 2  0 35.779 0
Info: PERIODIC CELL BASIS 3  0 0 34.471
Info: PERIODIC CELL CENTER   0 0 0
Info: WRAPPING WATERS AROUND PERIODIC BOUNDARIES ON OUTPUT.
Info: WRAPPING ALL CLUSTERS AROUND PERIODIC BOUNDARIES ON OUTPUT.
Info: FIRST LDB TIMESTEP     50
Info: LAST LDB TIMESTEP     -1
Info: HOM BACKGROUND SCALING 1
Info: PME BACKGROUND SCALING 1
Info: MIN ATOMS PER PATCH    40
Info: EMPTY PATCH LOAD       40 ATOMS
Info: INITIAL TEMPERATURE    300
Info: CENTER OF MASS MOVING INITIALLY? NO
Info: DIELECTRIC             1
Info: EXCLUDE                SCALED ONE-FOUR
Info: 1-4 ELECTROSTATICS SCALED BY 0.833333
Info: MODIFIED 1-4 VDW PARAMETERS WILL BE USED
Info: DCD FILENAME           mobley_2245668_equil.dcd
Info: DCD FREQUENCY          100000
Info: DCD FIRST STEP         100000
Info: DCD FILE WILL CONTAIN UNIT CELL DATA
Info: XST FILENAME           mobley_2245668_equil.xst
Info: XST FREQUENCY          100000
Info: NO VELOCITY DCD OUTPUT
Info: NO FORCE DCD OUTPUT
Info: OUTPUT FILENAME        mobley_2245668_equil
Info: BINARY OUTPUT FILES WILL BE USED
Info: RESTART FILENAME       mobley_2245668_equil.restart
Info: RESTART FREQUENCY      100000
Info: BINARY RESTART FILES WILL BE USED
Info: CUTOFF                 9
Info: PAIRLIST DISTANCE      11
Info: PAIRLIST SHRINK RATE   0.01
Info: PAIRLIST GROW RATE     0.01
Info: PAIRLIST TRIGGER       0.3
Info: PAIRLISTS PER CYCLE    2
Info: PAIRLISTS ENABLED
Info: MARGIN                 8
Info: HYDROGEN GROUP CUTOFF  2.5
Info: PATCH DIMENSION        21.5
Info: ENERGY OUTPUT STEPS    100000
Info: ENERGY EVALUATION STEPS    100000
Info: OUTPUT ENERGY PRECISION 4
Info: CROSSTERM ENERGY INCLUDED IN DIHEDRAL
Info: TIMING OUTPUT STEPS    1000000
Info: PRESSURE OUTPUT STEPS  100000
Info: FIXED ATOMS ACTIVE
Info: LANGEVIN DYNAMICS ACTIVE
Info: LANGEVIN TEMPERATURE   30
Info: LANGEVIN USING BBK INTEGRATOR
Info: LANGEVIN DAMPING COEFFICIENT IS 1 INVERSE PS
Info: LANGEVIN DYNAMICS APPLIED TO HYDROGENS
Info: LANGEVIN PISTON PRESSURE CONTROL ACTIVE
Info:        TARGET PRESSURE IS 1.01325 BAR
Info:     OSCILLATION PERIOD IS 50 FS
Info:             DECAY TIME IS 25 FS
Info:     PISTON TEMPERATURE IS 300 K
Info:       PRESSURE CONTROL IS GROUP-BASED
Info:    INITIAL STRAIN RATE IS 0 0 0
Info:       CELL FLUCTUATION IS ISOTROPIC
Info: PARTICLE MESH EWALD (PME) ACTIVE
Info: PME TOLERANCE               1e-06
Info: PME EWALD COEFFICIENT       0.348832
Info: PME INTERPOLATION ORDER     4
Info: PME GRID DIMENSIONS         40 36 36
Info: PME MAXIMUM GRID SPACING    1
Info: FULL ELECTROSTATIC EVALUATION FREQUENCY      2
Info: USING VERLET I (r-RESPA) MTS SCHEME.
Info: C1 SPLITTING OF LONG RANGE ELECTROSTATICS
Info: PLACING ATOMS IN PATCHES BY HYDROGEN GROUPS
Info: RIGID BONDS TO HYDROGEN : ALL
Info:         ERROR TOLERANCE : 1e-08
Info:          MAX ITERATIONS : 100
Info: RIGID WATER USING SETTLE ALGORITHM
Info: RANDOM NUMBER SEED     1744090054
Info: USE HYDROGEN BONDS?    NO
Info: Using AMBER format force field!
Info: AMBER PARM FILE        mobley_2245668.prmtop
Info: COORDINATE PDB         mobley_2245668.pdb
Info: Exclusions will be read from PARM file!
Info: SCNB (VDW SCALING)     2
Info: USING ARITHMETIC MEAN TO COMBINE L-J SIGMA PARAMETERS
Info: BINARY COORDINATES     mobley_2245668_min.coor
Info: SUMMARY OF PARAMETERS:
Info: 7 BONDS
Info: 8 ANGLES
Info: 6 DIHEDRAL
Info: 0 IMPROPER
Info: 0 CROSSTERM
Info: 0 VDW
Info: 21 VDW_PAIRS
Info: 0 NBTHOLE_PAIRS
Info: STRUCTURE SUMMARY:
Info: 2922 ATOMS
Info: 2921 BONDS
Info: 25 ANGLES
Info: 32 DIHEDRALS
Info: 0 IMPROPERS
Info: 0 CROSSTERMS
Info: 2976 EXCLUSIONS
Info: 15 FIXED ATOMS
Info: 2917 RIGID BONDS
Info: 10 RIGID BONDS BETWEEN FIXED ATOMS
Info: 5814 DEGREES OF FREEDOM
Info: 974 HYDROGEN GROUPS
Info: 4 ATOMS IN LARGEST HYDROGEN GROUP
Info: 974 MIGRATION GROUPS
Info: 4 ATOMS IN LARGEST MIGRATION GROUP
Info: 5 HYDROGEN GROUPS WITH ALL ATOMS FIXED
Info: TOTAL MASS = 17531.6 amu
Info: TOTAL CHARGE = 2.98023e-08 e
Info: MASS DENSITY = 0.655596 g/cm^3
Info: ATOM DENSITY = 0.0658014 atoms/A^3
Info: ADDED 0 IMPLICIT EXCLUSIONS
Info: NONBONDED TABLE R-SQUARED SPACING: 0.0625
Info: NONBONDED TABLE SIZE: 705 POINTS
Info: REMOVING COM VELOCITY 0.0319037 -0.0685194 0.181922
TCL: Running for 100000 steps
ETITLE: TS BOND ANGLE DIHED IMPRP ELECT VDW BOUNDARY MISC KINETIC TOTAL TEMP POTENTIAL TOTAL3 TEMPAVG PRESSURE GPRESSURE VOLUME PRESSAVG GPRESSAVG
ENERGY: 0 0.0000 0.0000 0.0000 0.0000 -13553.4715 2404.9279 0.0000 0.0000 1764.4885 -9384.0551 305.4458 -11148.5436 -9383.6963 305.4458 609.0741 640.6720 44406.3314 609.0741 640.6720
ENERGY: 100000 0.0000 0.0000 0.0000 0.0000 -14116.6529 2480.8038 0.0000 0.0000 167.3473 -11468.5018 28.9690 -11635.8491 -11468.0250 30.9379 119.2121 177.9436 29372.5132 5.7558 5.7773
TCL: Running 100000 steps at 60 kelvin.
TCL: Setting parameter langevinTemp to 60
TCL: Running for 100000 steps
ETITLE: TS BOND ANGLE DIHED IMPRP ELECT VDW BOUNDARY MISC KINETIC TOTAL TEMP POTENTIAL TOTAL3 TEMPAVG PRESSURE GPRESSURE VOLUME PRESSAVG GPRESSAVG
ENERGY: 100000 0.0000 0.0000 0.0000 0.0000 -14116.6529 2480.8038 0.0000 0.0000 167.2616 -11468.5875 28.9542 -11635.8491 -11468.2353 28.9542 126.0705 178.0786 29372.5132 126.0705 178.0786
ENERGY: 200000 0.0000 0.0000 0.0000 0.0000 -13962.4661 2382.0632 0.0000 0.0000 331.8251 -11248.5778 57.4413 -11580.4028 -11248.0106 60.0100 -343.8966 -315.3437 29165.1004 3.7799 3.6927
TCL: Running 100000 steps at 90 kelvin.
TCL: Setting parameter langevinTemp to 90
TCL: Running for 100000 steps
ETITLE: TS BOND ANGLE DIHED IMPRP ELECT VDW BOUNDARY MISC KINETIC TOTAL TEMP POTENTIAL TOTAL3 TEMPAVG PRESSURE GPRESSURE VOLUME PRESSAVG GPRESSAVG
ENERGY: 200000 0.0000 0.0000 0.0000 0.0000 -13962.4661 2382.0632 0.0000 0.0000 331.6569 -11248.7459 57.4122 -11580.4028 -11248.1505 57.4122 -373.6581 -315.4364 29165.1004 -373.6581 -315.4364
ENERGY: 300000 0.0000 0.0000 0.0000 0.0000 -13721.8638 2272.7551 0.0000 0.0000 507.9248 -10941.1838 87.9255 -11449.1087 -10940.8048 89.7295 -740.5947 -710.0226 29396.8568 3.7673 3.6663
TCL: Running 100000 steps at 120 kelvin.
TCL: Setting parameter langevinTemp to 120
TCL: Running for 100000 steps
ETITLE: TS BOND ANGLE DIHED IMPRP ELECT VDW BOUNDARY MISC KINETIC TOTAL TEMP POTENTIAL TOTAL3 TEMPAVG PRESSURE GPRESSURE VOLUME PRESSAVG GPRESSAVG
ENERGY: 300000 0.0000 0.0000 0.0000 0.0000 -13721.8638 2272.7551 0.0000 0.0000 507.6625 -10941.4462 87.8801 -11449.1087 -10940.4235 87.8801 -755.1588 -711.0069 29396.8568 -755.1588 -711.0069
ENERGY: 400000 0.0000 0.0000 0.0000 0.0000 -13740.9664 2391.6318 0.0000 0.0000 708.3942 -10640.9404 122.6282 -11349.3346 -10640.1017 119.7235 696.8345 747.0865 28879.3385 2.7805 2.7470
TCL: Running 100000 steps at 150 kelvin.
TCL: Setting parameter langevinTemp to 150
TCL: Running for 100000 steps
ETITLE: TS BOND ANGLE DIHED IMPRP ELECT VDW BOUNDARY MISC KINETIC TOTAL TEMP POTENTIAL TOTAL3 TEMPAVG PRESSURE GPRESSURE VOLUME PRESSAVG GPRESSAVG
ENERGY: 400000 0.0000 0.0000 0.0000 0.0000 -13740.9664 2391.6318 0.0000 0.0000 708.0603 -10641.2743 122.5704 -11349.3346 -10640.0461 122.5704 690.9232 746.7554 28879.3385 690.9232 746.7554
ENERGY: 500000 0.0000 0.0000 0.0000 0.0000 -13354.2265 2152.8182 0.0000 0.0000 873.6392 -10327.7692 151.2333 -11201.4084 -10324.2242 149.8532 -811.3587 -784.9516 29128.7608 3.5405 3.5910
TCL: Running 100000 steps at 180 kelvin.
TCL: Setting parameter langevinTemp to 180
TCL: Running for 100000 steps
ETITLE: TS BOND ANGLE DIHED IMPRP ELECT VDW BOUNDARY MISC KINETIC TOTAL TEMP POTENTIAL TOTAL3 TEMPAVG PRESSURE GPRESSURE VOLUME PRESSAVG GPRESSAVG
ENERGY: 500000 0.0000 0.0000 0.0000 0.0000 -13354.2265 2152.8182 0.0000 0.0000 873.2272 -10328.1811 151.1620 -11201.4084 -10326.0433 151.1620 -829.9792 -783.5167 29128.7608 -829.9792 -783.5167
ENERGY: 600000 0.0000 0.0000 0.0000 0.0000 -12990.8826 2081.6172 0.0000 0.0000 1052.4641 -9856.8013 182.1892 -10909.2654 -9854.3415 179.9928 -131.6632 -114.6664 28715.3360 5.6023 5.4403
TCL: Running 100000 steps at 210 kelvin.
TCL: Setting parameter langevinTemp to 210
TCL: Running for 100000 steps
ETITLE: TS BOND ANGLE DIHED IMPRP ELECT VDW BOUNDARY MISC KINETIC TOTAL TEMP POTENTIAL TOTAL3 TEMPAVG PRESSURE GPRESSURE VOLUME PRESSAVG GPRESSAVG
ENERGY: 600000 0.0000 0.0000 0.0000 0.0000 -12990.8826 2081.6172 0.0000 0.0000 1051.9280 -9857.3375 182.0964 -10909.2654 -9855.4228 182.0964 -165.7883 -115.0193 28715.3360 -165.7883 -115.0193
ENERGY: 700000 0.0000 0.0000 0.0000 0.0000 -12331.7996 1893.6133 0.0000 0.0000 1217.2942 -9220.8921 210.7225 -10438.1863 -9218.4781 209.8873 83.2527 148.1490 28495.9898 3.0125 3.0290
TCL: Running 100000 steps at 240 kelvin.
TCL: Setting parameter langevinTemp to 240
TCL: Running for 100000 steps
ETITLE: TS BOND ANGLE DIHED IMPRP ELECT VDW BOUNDARY MISC KINETIC TOTAL TEMP POTENTIAL TOTAL3 TEMPAVG PRESSURE GPRESSURE VOLUME PRESSAVG GPRESSAVG
ENERGY: 700000 0.0000 0.0000 0.0000 0.0000 -12331.7996 1893.6133 0.0000 0.0000 1216.7062 -9221.4801 210.6207 -10438.1863 -9219.4147 210.6207 79.9066 148.4906 28495.9898 79.9066 148.4906
ENERGY: 800000 0.0000 0.0000 0.0000 0.0000 -11917.9247 1846.0408 0.0000 0.0000 1350.5064 -8721.3775 233.7825 -10071.8839 -8719.2042 239.9380 1037.3966 1119.9020 28412.5027 4.8936 4.9190
TCL: Running 100000 steps at 270 kelvin.
TCL: Setting parameter langevinTemp to 270
TCL: Running for 100000 steps
ETITLE: TS BOND ANGLE DIHED IMPRP ELECT VDW BOUNDARY MISC KINETIC TOTAL TEMP POTENTIAL TOTAL3 TEMPAVG PRESSURE GPRESSURE VOLUME PRESSAVG GPRESSAVG
ENERGY: 800000 0.0000 0.0000 0.0000 0.0000 -11917.9247 1846.0408 0.0000 0.0000 1349.8185 -8722.0654 233.6634 -10071.8839 -8719.9894 233.6634 1035.7743 1120.4081 28412.5027 1035.7743 1120.4081
ENERGY: 900000 0.0000 0.0000 0.0000 0.0000 -11126.5087 1553.3066 0.0000 0.0000 1557.1962 -8016.0058 269.5620 -9573.2020 -8012.7866 270.6190 146.5237 222.8676 29185.5958 4.2595 4.2788
TCL: Running 1000000 steps at 300 kelvin.
TCL: Setting parameter langevinTemp to 300
TCL: Running for 1000000 steps
ETITLE: TS BOND ANGLE DIHED IMPRP ELECT VDW BOUNDARY MISC KINETIC TOTAL TEMP POTENTIAL TOTAL3 TEMPAVG PRESSURE GPRESSURE VOLUME PRESSAVG GPRESSAVG
ENERGY: 900000 0.0000 0.0000 0.0000 0.0000 -11126.5087 1553.3066 0.0000 0.0000 1556.4216 -8016.7805 269.4279 -9573.2020 -8014.2466 269.4279 133.9578 222.6788 29185.5958 133.9578 222.6788
ENERGY: 1100000 0.0000 0.0000 0.0000 0.0000 -10581.2234 1351.6476 0.0000 0.0000 1746.3073 -7483.2684 302.2985 -9229.5758 -7480.5308 300.6699 -487.9621 -438.4593 29948.4353 1.9823 1.8921
ENERGY: 1300000 0.0000 0.0000 0.0000 0.0000 -10555.1659 1369.2354 0.0000 0.0000 1717.2118 -7468.7187 297.2619 -9185.9306 -7465.5318 299.7435 -431.7739 -344.2644 30202.5268 2.8896 2.6144
ENERGY: 1500000 0.0000 0.0000 0.0000 0.0000 -10643.7805 1477.8864 0.0000 0.0000 1714.0163 -7451.8777 296.7087 -9165.8940 -7446.8718 300.1858 320.6894 438.7282 30159.2714 3.4894 3.2418
ENERGY: 1700000 0.0000 0.0000 0.0000 0.0000 -10594.1914 1387.4875 0.0000 0.0000 1789.9519 -7416.7520 309.8537 -9206.7039 -7409.5141 301.1471 -520.1091 -425.8939 30462.4050 2.0386 1.8505
ENERGY: 1900000 0.0000 0.0000 0.0000 0.0000 -10734.5932 1447.4118 0.0000 0.0000 1781.6611 -7505.5204 308.4185 -9287.1815 -7500.8161 300.4144 486.5863 534.7810 29285.5428 3.4954 3.3877
TCL: Exiting due to exit command.
